0:0:0
     RDKit          3D

 77 85  0  0  1  0  0  0  0  0999 V2000
   27.3140  -27.0290  -16.2240 C   0  0  0  0  0  2  0  0  0  0  0  0
   25.9090  -24.7430  -15.3910 N   0  0  0  0  0  0  0  0  0  0  0  0
   26.8710  -25.1860  -14.5850 C   0  0  0  0  0  0  0  0  0  0  0  0
   27.2840  -24.5600  -13.6050 O   0  0  0  0  0  0  0  0  0  0  0  0
   27.2240  -26.4490  -14.8710 N   0  0  0  0  0  0  0  0  0  0  0  0
   25.6150  -25.3800  -16.1120 H   0  0  0  0  0  0  0  0  0  0  0  0
   27.8130  -26.8910  -14.1770 H   0  0  0  0  0  0  0  0  0  0  0  0
   25.0030  -23.6190  -15.1690 C   0  0  0  0  0  3  0  0  0  0  0  0
   21.8830  -23.8810  -12.7840 C   0  0  0  0  0  3  0  0  0  0  0  0
   21.4180  -22.6460  -11.9950 C   0  0  0  0  0  2  0  0  0  0  0  0
   22.6800  -21.8340  -11.7890 C   0  0  0  0  0  3  0  0  0  0  0  0
   23.5570  -22.1530  -12.9990 C   0  0  0  0  0  2  0  0  0  0  0  0
   23.0830  -23.4390  -13.5240 N   0  0  0  0  0  0  0  0  0  0  0  0
   23.7380  -24.1820  -14.4540 C   0  0  0  0  0  0  0  0  0  0  0  0
   23.3800  -25.3340  -14.7200 O   0  0  0  0  0  0  0  0  0  0  0  0
   19.9370  -25.3240  -13.0710 N   0  0  0  0  0  0  0  0  0  0  0  0
   20.7190  -24.4020  -13.6430 C   0  0  0  0  0  0  0  0  0  0  0  0
   20.4990  -23.9320  -14.7620 O   0  0  0  0  0  0  0  0  0  0  0  0
   20.2000  -25.6650  -12.1560 H   0  0  0  0  0  0  0  0  0  0  0  0
   18.6770  -25.8100  -13.6150 C   0  0  0  0  0  2  0  0  0  0  0  0
   15.2910  -23.2550  -12.6330 C   0  0  0  0  0  0  0  0  0  0  0  0
   16.3250  -23.4530  -11.6930 C   0  0  0  0  0  3  0  0  0  0  0  0
   17.4210  -24.2760  -12.0090 C   0  0  0  0  0  3  0  0  0  0  0  0
   15.3690  -23.8840  -13.8930 C   0  0  0  0  0  3  0  0  0  0  0  0
   16.4670  -24.7060  -14.2080 C   0  0  0  0  0  3  0  0  0  0  0  0
   17.4990  -24.9080  -13.2680 C   0  0  0  0  0  0  0  0  0  0  0  0
   12.1750  -23.7610  -13.2990 C   0  0  0  0  0  1  0  0  0  0  0  0
   12.8170  -22.6200  -12.5340 C   0  0  0  0  0  0  0  0  0  0  0  0
   11.9870  -21.6680  -11.9780 N   0  0  0  0  0  0  0  0  0  0  0  0
   12.6080  -20.7170  -11.0630 C   0  0  0  0  0  2  0  0  0  0  0  0
   14.3820  -20.9730  -11.3420 S   0  0  0  0  0  0  0  0  0  0  0  0
   14.1160  -22.4530  -12.2510 C   0  0  0  0  0  0  0  0  0  0  0  0
   10.9740  -21.7250  -12.0120 H   0  0  0  0  0  0  0  0  0  0  0  0
   23.3470  -22.2550  -10.6100 O   0  0  0  0  0  0  0  0  0  0  0  0
   23.5630  -23.1780  -10.6990 H   0  0  0  0  0  0  0  0  0  0  0  0
   24.6990  -22.9690  -16.5710 C   0  0  1  0  0  0  0  0  0  0  0  0
   26.0070  -22.3540  -17.1250 C   0  0  0  0  0  1  0  0  0  0  0  0
   24.1720  -23.9760  -17.6220 C   0  0  0  0  0  1  0  0  0  0  0  0
   23.6710  -21.8250  -16.4620 C   0  0  0  0  0  1  0  0  0  0  0  0
   25.6880  -27.4800  -18.1360 C   0  0  0  0  0  2  0  0  0  0  0  0
   26.1720  -27.9060  -16.7790 C   0  0  0  0  0  3  0  0  0  0  0  0
   24.6960  -27.5240  -16.9980 C   0  0  0  0  0  3  0  0  0  0  0  0
   22.3480  -28.3010  -16.9230 C   0  0  0  0  0  0  0  0  0  0  0  0
   23.6300  -28.4440  -17.3060 N   0  0  0  0  0  0  0  0  0  0  0  0
   22.0300  -27.6530  -15.9270 O   0  0  0  0  0  0  0  0  0  0  0  0
   23.7780  -29.0500  -18.1000 H   0  0  0  0  0  0  0  0  0  0  0  0
   20.5790  -31.1190  -17.0460 C   0  0  0  0  0  0  0  0  0  0  0  0
   20.0880  -30.6650  -16.0070 O   0  0  0  0  0  0  0  0  0  0  0  0
   22.1760  -29.5050  -19.9970 C   0  0  0  0  0  2  0  0  0  0  0  0
   21.4370  -28.3660  -19.3030 C   0  0  0  0  0  2  0  0  0  0  0  0
   21.6900  -30.7590  -19.2680 C   0  0  0  0  0  2  0  0  0  0  0  0
   21.2330  -28.8500  -17.8540 C   0  0  0  0  0  3  0  0  0  0  0  0
   21.1640  -30.3150  -17.9690 N   0  0  0  0  0  0  0  0  0  0  0  0
   20.5790  -32.6480  -17.2590 C   0  0  0  0  0  2  0  0  0  0  0  0
   21.1630  -33.4130  -16.0470 C   0  0  0  0  0  3  0  0  0  0  0  0
   22.5110  -32.9180  -15.7660 N   0  0  0  0  0  0  0  0  0  0  0  0
   21.1990  -34.9220  -16.2240 C   0  0  0  0  0  0  0  0  0  0  0  0
   20.9390  -35.6060  -17.3450 N   0  0  0  0  0  0  0  0  0  0  0  0
   21.1880  -36.9310  -17.0430 N   0  0  0  0  0  0  0  0  0  0  0  0
   21.5900  -36.9430  -15.7680 C   0  0  0  0  0  0  0  0  0  0  0  0
   22.0220  -38.1870  -15.0520 C   0  0  0  0  0  1  0  0  0  0  0  0
   21.5890  -35.7150  -15.2070 N   0  0  0  0  0  0  0  0  0  0  0  0
   21.9000  -35.3020  -13.8960 C   0  0  0  0  0  0  0  0  0  0  0  0
   21.4500  -36.1430  -12.4470 S   0  0  0  0  0  0  0  0  0  0  0  0
   22.1090  -34.8750  -11.4530 C   0  0  0  0  0  0  0  0  0  0  0  0
   22.0360  -34.9950   -9.9660 C   0  0  0  0  0  1  0  0  0  0  0  0
   22.6320  -33.8450  -12.2070 C   0  0  0  0  0  0  0  0  0  0  0  0
   23.2020  -32.5950  -11.5840 C   0  0  0  0  0  1  0  0  0  0  0  0
   22.5460  -34.1150  -13.6200 C   0  0  0  0  0  0  0  0  0  0  0  0
   23.1100  -33.2050  -14.6710 C   0  0  0  0  0  0  0  0  0  0  0  0
   24.4510  -32.6200  -14.4570 C   0  0  0  0  0  0  0  0  0  0  0  0
   25.5010  -33.4280  -13.9710 C   0  0  0  0  0  3  0  0  0  0  0  0
   26.7730  -32.8690  -13.7380 C   0  0  0  0  0  3  0  0  0  0  0  0
   26.9930  -31.5030  -13.9820 C   0  0  0  0  0  0  0  0  0  0  0  0
   28.5460  -30.8120  -13.6960 Cl  0  0  0  0  0  0  0  0  0  0  0  0
   25.9450  -30.6930  -14.4560 C   0  0  0  0  0  3  0  0  0  0  0  0
   24.6790  -31.2510  -14.7110 C   0  0  0  0  0  3  0  0  0  0  0  0
  1  5  1  0
  2  8  1  0
  2  3  1  0
  3  4  2  0
  5  3  1  0
  5  7  1  0
  6  2  1  0
  8 14  1  0
  9 17  1  0
  9 10  1  0
 10 11  1  0
 11 34  1  0
 12 11  1  0
 13 12  1  0
 13  9  1  0
 14 13  1  0
 15 14  2  0
 16 19  1  0
 17 16  1  0
 18 17  2  0
 20 26  1  0
 20 16  1  0
 21 32  1  0
 21 22  1  0
 23 22  2  0
 24 21  2  0
 25 24  1  0
 25 26  2  0
 26 23  1  0
 27 28  1  0
 28 32  2  0
 28 29  1  0
 29 30  1  0
 31 30  1  0
 32 31  1  0
 33 29  1  0
 35 34  1  0
 36 39  1  1
 36  8  1  0
 37 36  1  0
 38 36  1  0
 40 42  1  0
 40 41  1  0
 41  1  1  0
 42 44  1  0
 42 41  1  0
 43 45  2  0
 44 43  1  0
 46 44  1  0
 47 48  2  0
 49 50  1  0
 49 51  1  0
 50 52  1  0
 51 53  1  0
 52 43  1  0
 53 52  1  0
 53 47  1  0
 54 47  1  0
 55 54  1  0
 55 56  1  0
 56 70  2  0
 57 55  1  0
 57 62  1  0
 58 59  1  0
 58 57  2  0
 59 60  2  0
 60 62  1  0
 60 61  1  0
 62 63  1  0
 63 69  2  0
 63 64  1  0
 64 65  1  0
 65 66  1  0
 67 68  1  0
 67 65  2  0
 69 67  1  0
 70 71  1  0
 70 69  1  0
 71 72  1  0
 72 73  2  0
 74 73  1  0
 74 75  1  0
 76 74  2  0
 77 71  2  0
 77 76  1  0
M  ISO  4   3 101   5 101  47 100  53 100
M  END
>  <TORSDO>  (1) 
F 15

>  <SCORE>  (1) 
-14.135

>  <name>  (1) 
0

>  <ligand_id>  (1) 
0

>  <original_smiles>  (1) 
[H]OC1([H])C([H])([H])N(C(=O)C([H])(N([H])C(=O)N([H])C([H])([H])C2([H])C([H])([H])C2([H])N([H])C(=O)C2([H])N(C(=O)C([H])([H])C3([H])N=C(c4c([H])c([H])c(Cl)c([H])c4[H])c4c(sc(C([H])([H])[H])c4C([H])([H])[H])-n4c(C([H])([H])[H])nnc43)C([H])([H])C([H])([H])C2([H])[H])C(C([H])([H])[H])(C([H])([H])[H])C([H])([H])[H])C([H])(C(=O)N([H])C([H])([H])c2c([H])c([H])c(C3=C(C([H])([H])[H])N([H])C([H])([H])S3)c([H])c2[H])C1([H])[H]

>  <smiles>  (1) 
[H]OC1([H])C([H])([H])N(C(=O)C([H])(N([H])C(=O)N([H])C([H])([H])C2([H])C([H])([H])C2([H])N([H])C(=O)C2([H])N(C(=O)C([H])([H])C3([H])N=C(c4c([H])c([H])c(Cl)c([H])c4[H])c4c(sc(C([H])([H])[H])c4C([H])([H])[H])-n4c(C([H])([H])[H])nnc43)C([H])([H])C([H])([H])C2([H])[H])C(C([H])([H])[H])(C([H])([H])[H])C([H])([H])[H])C([H])(C(=O)N([H])C([H])([H])c2c([H])c([H])c(C3=C(C([H])([H])[H])N([H])C([H])([H])S3)c([H])c2[H])C1([H])[H]

$$$$
1:0:0
     RDKit          3D

 77 83  0  0  1  0  0  0  0  0999 V2000
   26.8830  -27.0570  -16.2310 C   0  0  0  0  0  2  0  0  0  0  0  0
   25.9550  -24.6320  -15.3570 N   0  0  0  0  0  0  0  0  0  0  0  0
   26.9230  -25.1170  -14.5930 C   0  0  0  0  0  0  0  0  0  0  0  0
   27.3700  -24.5310  -13.6050 O   0  0  0  0  0  0  0  0  0  0  0  0
   27.3100  -26.3390  -15.0010 N   0  0  0  0  0  0  0  0  0  0  0  0
   25.7180  -25.1800  -16.1640 H   0  0  0  0  0  0  0  0  0  0  0  0
   28.0540  -26.7620  -14.4610 H   0  0  0  0  0  0  0  0  0  0  0  0
   25.0180  -23.5510  -15.1070 C   0  0  0  0  0  3  0  0  0  0  0  0
   21.8960  -23.8940  -12.7380 C   0  0  0  0  0  3  0  0  0  0  0  0
   21.4200  -22.6750  -11.9320 C   0  0  0  0  0  2  0  0  0  0  0  0
   22.6750  -21.8590  -11.7140 C   0  0  0  0  0  3  0  0  0  0  0  0
   23.5500  -22.1430  -12.9360 C   0  0  0  0  0  2  0  0  0  0  0  0
   23.0930  -23.4310  -13.4720 N   0  0  0  0  0  0  0  0  0  0  0  0
   23.7590  -24.1530  -14.4060 C   0  0  0  0  0  0  0  0  0  0  0  0
   23.4120  -25.3030  -14.7010 O   0  0  0  0  0  0  0  0  0  0  0  0
   19.9580  -25.3430  -13.0540 N   0  0  0  0  0  0  0  0  0  0  0  0
   20.7360  -24.4100  -13.6090 C   0  0  0  0  0  0  0  0  0  0  0  0
   20.5200  -23.9300  -14.7250 O   0  0  0  0  0  0  0  0  0  0  0  0
   20.2200  -25.7000  -12.1450 H   0  0  0  0  0  0  0  0  0  0  0  0
   18.6980  -25.8240  -13.6070 C   0  0  0  0  0  2  0  0  0  0  0  0
   15.3120  -23.2670  -12.6270 C   0  0  0  0  0  0  0  0  0  0  0  0
   16.3460  -23.4650  -11.6880 C   0  0  0  0  0  3  0  0  0  0  0  0
   17.4410  -24.2880  -12.0020 C   0  0  0  0  0  3  0  0  0  0  0  0
   15.3910  -23.8980  -13.8860 C   0  0  0  0  0  3  0  0  0  0  0  0
   16.4900  -24.7210  -14.2000 C   0  0  0  0  0  3  0  0  0  0  0  0
   17.5210  -24.9210  -13.2600 C   0  0  0  0  0  0  0  0  0  0  0  0
   12.1940  -23.7730  -13.2840 C   0  0  0  0  0  1  0  0  0  0  0  0
   12.8370  -22.6310  -12.5270 C   0  0  0  0  0  0  0  0  0  0  0  0
   12.0090  -21.6740  -11.9750 N   0  0  0  0  0  0  0  0  0  0  0  0
   12.6320  -20.7180  -11.0680 C   0  0  0  0  0  2  0  0  0  0  0  0
   14.4050  -20.9770  -11.3450 S   0  0  0  0  0  0  0  0  0  0  0  0
   14.1370  -22.4640  -12.2450 C   0  0  0  0  0  0  0  0  0  0  0  0
   10.9960  -21.7310  -12.0070 H   0  0  0  0  0  0  0  0  0  0  0  0
   23.3570  -22.2980  -10.5500 O   0  0  0  0  0  0  0  0  0  0  0  0
   23.5420  -23.2270  -10.6410 H   0  0  0  0  0  0  0  0  0  0  0  0
   24.7080  -22.9110  -16.5120 C   0  0  1  0  0  0  0  0  0  0  0  0
   25.9860  -22.2180  -17.0440 C   0  0  0  0  0  1  0  0  0  0  0  0
   24.2500  -23.9330  -17.5860 C   0  0  0  0  0  1  0  0  0  0  0  0
   23.6170  -21.8270  -16.4220 C   0  0  0  0  0  1  0  0  0  0  0  0
   25.3630  -27.4170  -16.2930 C   0  0  0  0  0  2  0  0  0  0  0  0
   24.8800  -27.8480  -17.6280 N   0  0  0  0  0  4  0  0  0  0  0  0
   25.0940  -28.8300  -17.7800 H   0  0  0  0  0  0  0  0  0  0  0  0
   25.3080  -27.3130  -18.3680 H   0  0  0  0  0  0  0  0  0  0  0  0
   22.9280  -29.0260  -17.8990 C   0  0  0  0  0  0  0  0  0  0  0  0
   21.5950  -29.1400  -17.8740 N   0  0  0  0  0  0  0  0  0  0  0  0
   23.3870  -27.7770  -17.7840 N   0  0  0  0  0  0  0  0  0  0  0  0
   23.6770  -30.0000  -18.0120 O   0  0  0  0  0  0  0  0  0  0  0  0
   20.9130  -28.4020  -17.7580 H   0  0  0  0  0  0  0  0  0  0  0  0
   22.8960  -26.8950  -17.7920 H   0  0  0  0  0  0  0  0  0  0  0  0
   20.5050  -31.1200  -17.0320 C   0  0  0  0  0  0  0  0  0  0  0  0
   20.1110  -30.5950  -15.9860 O   0  0  0  0  0  0  0  0  0  0  0  0
   21.0250  -30.4250  -18.0580 N   0  0  0  0  0  0  0  0  0  0  0  0
   21.4670  -30.8920  -18.8420 H   0  0  0  0  0  0  0  0  0  0  0  0
   20.5170  -32.6480  -17.1930 C   0  0  0  0  0  2  0  0  0  0  0  0
   21.1260  -33.3920  -15.9760 C   0  0  0  0  0  3  0  0  0  0  0  0
   22.4690  -32.8690  -15.7020 N   0  0  0  0  0  0  0  0  0  0  0  0
   21.1960  -34.9010  -16.1530 C   0  0  0  0  0  0  0  0  0  0  0  0
   20.9350  -35.5900  -17.2730 N   0  0  0  0  0  0  0  0  0  0  0  0
   21.2090  -36.9110  -16.9720 N   0  0  0  0  0  0  0  0  0  0  0  0
   21.6250  -36.9160  -15.7020 C   0  0  0  0  0  0  0  0  0  0  0  0
   22.0840  -38.1530  -14.9940 C   0  0  0  0  0  1  0  0  0  0  0  0
   21.6130  -35.6880  -15.1410 N   0  0  0  0  0  0  0  0  0  0  0  0
   21.9320  -35.2710  -13.8340 C   0  0  0  0  0  0  0  0  0  0  0  0
   21.5120  -36.1210  -12.3820 S   0  0  0  0  0  0  0  0  0  0  0  0
   22.1630  -34.8440  -11.3940 C   0  0  0  0  0  0  0  0  0  0  0  0
   22.1080  -34.9720   -9.9050 C   0  0  0  0  0  1  0  0  0  0  0  0
   22.6570  -33.8030  -12.1520 C   0  0  0  0  0  0  0  0  0  0  0  0
   23.2080  -32.5430  -11.5320 C   0  0  0  0  0  1  0  0  0  0  0  0
   22.5580  -34.0730  -13.5640 C   0  0  0  0  0  0  0  0  0  0  0  0
   23.0910  -33.1520  -14.6190 C   0  0  0  0  0  0  0  0  0  0  0  0
   24.4300  -32.5510  -14.4240 C   0  0  0  0  0  0  0  0  0  0  0  0
   25.4990  -33.3430  -13.9480 C   0  0  0  0  0  3  0  0  0  0  0  0
   26.7670  -32.7670  -13.7340 C   0  0  0  0  0  3  0  0  0  0  0  0
   26.9670  -31.3990  -13.9930 C   0  0  0  0  0  0  0  0  0  0  0  0
   28.5150  -30.6860  -13.7280 Cl  0  0  0  0  0  0  0  0  0  0  0  0
   25.9070  -30.6100  -14.4710 C   0  0  0  0  0  3  0  0  0  0  0  0
   24.6400  -31.1810  -14.6920 C   0  0  0  0  0  3  0  0  0  0  0  0
  1  5  1  0
  2  8  1  0
  2  3  1  0
  3  4  2  0
  5  3  1  0
  5  7  1  0
  6  2  1  0
  8 14  1  0
  9 17  1  0
  9 10  1  0
 10 11  1  0
 11 34  1  0
 12 11  1  0
 13 12  1  0
 13  9  1  0
 14 13  1  0
 15 14  2  0
 16 19  1  0
 17 16  1  0
 18 17  2  0
 20 26  1  0
 20 16  1  0
 21 32  1  0
 21 22  1  0
 23 22  2  0
 24 21  2  0
 25 24  1  0
 25 26  2  0
 26 23  1  0
 27 28  1  0
 28 32  2  0
 28 29  1  0
 29 30  1  0
 31 30  1  0
 32 31  1  0
 33 29  1  0
 35 34  1  0
 36 39  1  1
 36  8  1  0
 37 36  1  0
 38 36  1  0
 40  1  1  0
 41 40  1  0
 42 41  1  0
 43 41  1  0
 44 45  1  0
 44 46  1  0
 45 48  1  0
 46 41  1  0
 47 44  2  0
 49 46  1  0
 50 51  2  0
 52 45  1  0
 52 50  1  0
 53 52  1  0
 54 50  1  0
 55 54  1  0
 55 56  1  0
 56 70  2  0
 57 55  1  0
 57 62  1  0
 58 59  1  0
 58 57  2  0
 59 60  2  0
 60 62  1  0
 60 61  1  0
 62 63  1  0
 63 69  2  0
 63 64  1  0
 64 65  1  0
 65 66  1  0
 67 68  1  0
 67 65  2  0
 69 67  1  0
 70 71  1  0
 70 69  1  0
 71 72  1  0
 72 73  2  0
 74 73  1  0
 74 75  1  0
 76 74  2  0
 77 76  1  0
 77 71  2  0
M  ISO  4   3 101   5 101  50 100  52 100
M  END
>  <TORSDO>  (2) 
F 16

>  <SCORE>  (2) 
-12.886

>  <name>  (2) 
1

>  <ligand_id>  (2) 
1

>  <original_smiles>  (2) 
[H]OC1([H])C([H])([H])N(C(=O)C([H])(N([H])C(=O)N([H])C([H])([H])C([H])([H])[N+]([H])([H])N([H])C(=O)N([H])N([H])C(=O)C([H])([H])C2([H])N=C(c3c([H])c([H])c(Cl)c([H])c3[H])c3c(sc(C([H])([H])[H])c3C([H])([H])[H])-n3c(C([H])([H])[H])nnc32)C(C([H])([H])[H])(C([H])([H])[H])C([H])([H])[H])C([H])(C(=O)N([H])C([H])([H])c2c([H])c([H])c(C3=C(C([H])([H])[H])N([H])C([H])([H])S3)c([H])c2[H])C1([H])[H]

>  <smiles>  (2) 
[H]OC1([H])C([H])([H])N(C(=O)C([H])(N([H])C(=O)N([H])C([H])([H])C([H])([H])[N+]([H])([H])N([H])C(=O)N([H])N([H])C(=O)C([H])([H])C2([H])N=C(c3c([H])c([H])c(Cl)c([H])c3[H])c3c(sc(C([H])([H])[H])c3C([H])([H])[H])-n3c(C([H])([H])[H])nnc32)C(C([H])([H])[H])(C([H])([H])[H])C([H])([H])[H])C([H])(C(=O)N([H])C([H])([H])c2c([H])c([H])c(C3=C(C([H])([H])[H])N([H])C([H])([H])S3)c([H])c2[H])C1([H])[H]

$$$$
2:0:0
     RDKit          3D

 77 85  0  0  1  0  0  0  0  0999 V2000
   28.1000  -28.4340  -15.2830 C   0  0  0  0  0  2  0  0  0  0  0  0
   28.7160  -28.1170  -16.6780 C   0  0  0  0  0  2  0  0  0  0  0  0
   25.6490  -28.2730  -14.4260 C   0  0  0  0  0  2  0  0  0  0  0  0
   22.0770  -28.7640  -15.6110 C   0  0  0  0  0  2  0  0  0  0  0  0
   26.0120  -27.1590  -17.6100 C   0  0  0  0  0  2  0  0  0  0  0  0
   24.3010  -28.7390  -15.0850 C   0  0  0  0  0  3  0  0  0  0  0  0
   24.2560  -28.7040  -16.6330 C   0  0  0  0  0  3  0  0  0  0  0  0
   22.7540  -29.1510  -16.9560 C   0  0  0  0  0  3  0  0  0  0  0  0
   27.2110  -26.2480  -16.9560 C   0  0  0  0  0  3  0  0  0  0  0  0
   26.6650  -28.4720  -15.4280 O   0  0  0  0  0  0  0  0  0  0  0  0
   23.0650  -28.1200  -14.7820 O   0  0  0  0  0  0  0  0  0  0  0  0
   24.7140  -27.3290  -16.9520 O   0  0  0  0  0  0  0  0  0  0  0  0
   28.4300  -26.8440  -17.2860 O   0  0  0  0  0  0  0  0  0  0  0  0
   22.5430  -30.5740  -17.4000 O   0  0  0  0  0  0  0  0  0  0  0  0
   21.2880  -31.3220  -17.4240 C   0  0  0  0  0  0  0  0  0  0  0  0
   20.2420  -30.8630  -16.9810 O   0  0  0  0  0  0  0  0  0  0  0  0
   21.3490  -32.8660  -17.7330 C   0  0  0  0  0  2  0  0  0  0  0  0
   21.5940  -33.6720  -16.4180 C   0  0  0  0  0  3  0  0  0  0  0  0
   22.9380  -33.3140  -16.0220 N   0  0  0  0  0  0  0  0  0  0  0  0
   21.4920  -35.2020  -16.4010 C   0  0  0  0  0  0  0  0  0  0  0  0
   21.2980  -36.0230  -17.4410 N   0  0  0  0  0  0  0  0  0  0  0  0
   21.4180  -37.3090  -16.9380 N   0  0  0  0  0  0  0  0  0  0  0  0
   21.6830  -37.1710  -15.6340 C   0  0  0  0  0  0  0  0  0  0  0  0
   21.9600  -38.3250  -14.7160 C   0  0  0  0  0  1  0  0  0  0  0  0
   21.7020  -35.8780  -15.2430 N   0  0  0  0  0  0  0  0  0  0  0  0
   21.9030  -35.3210  -13.9600 C   0  0  0  0  0  0  0  0  0  0  0  0
   21.2650  -35.9270  -12.4650 S   0  0  0  0  0  0  0  0  0  0  0  0
   21.9130  -34.5680  -11.5820 C   0  0  0  0  0  0  0  0  0  0  0  0
   21.6980  -34.4710  -10.1070 C   0  0  0  0  0  1  0  0  0  0  0  0
   22.5730  -33.6840  -12.4050 C   0  0  0  0  0  0  0  0  0  0  0  0
   23.1660  -32.3900  -11.9020 C   0  0  0  0  0  1  0  0  0  0  0  0
   22.6090  -34.1590  -13.7630 C   0  0  0  0  0  0  0  0  0  0  0  0
   23.3730  -33.4890  -14.8430 C   0  0  0  0  0  0  0  0  0  0  0  0
   24.7400  -33.0400  -14.5690 C   0  0  0  0  0  0  0  0  0  0  0  0
   25.5580  -33.7070  -13.6370 C   0  0  0  0  0  3  0  0  0  0  0  0
   26.8310  -33.2040  -13.3220 C   0  0  0  0  0  3  0  0  0  0  0  0
   27.3210  -32.0730  -13.9720 C   0  0  0  0  0  0  0  0  0  0  0  0
   28.8560  -31.4460  -13.5010 Cl  0  0  0  0  0  0  0  0  0  0  0  0
   26.5760  -31.5630  -15.0380 C   0  0  0  0  0  3  0  0  0  0  0  0
   25.2820  -31.9990  -15.3110 C   0  0  0  0  0  3  0  0  0  0  0  0
   27.3140  -26.0000  -15.5370 O   0  0  0  0  0  0  0  0  0  0  0  0
   25.6670  -24.6400  -15.6160 N   0  0  0  0  0  0  0  0  0  0  0  0
   26.7400  -24.9930  -14.8950 C   0  0  0  0  0  0  0  0  0  0  0  0
   27.1020  -24.5170  -13.8100 O   0  0  0  0  0  0  0  0  0  0  0  0
   25.3590  -25.3220  -16.2950 H   0  0  0  0  0  0  0  0  0  0  0  0
   24.7880  -23.5470  -15.4400 C   0  0  0  0  0  3  0  0  0  0  0  0
   21.8000  -23.8770  -12.9560 C   0  0  0  0  0  3  0  0  0  0  0  0
   21.3630  -22.6450  -12.1520 C   0  0  0  0  0  2  0  0  0  0  0  0
   22.6330  -21.8380  -11.9760 C   0  0  0  0  0  3  0  0  0  0  0  0
   23.4710  -22.1490  -13.2140 C   0  0  0  0  0  2  0  0  0  0  0  0
   22.9720  -23.4280  -13.7260 N   0  0  0  0  0  0  0  0  0  0  0  0
   23.5730  -24.1480  -14.6950 C   0  0  0  0  0  0  0  0  0  0  0  0
   23.2120  -25.2950  -14.9690 O   0  0  0  0  0  0  0  0  0  0  0  0
   19.8550  -25.3250  -13.2070 N   0  0  0  0  0  0  0  0  0  0  0  0
   20.6200  -24.4000  -13.7940 C   0  0  0  0  0  0  0  0  0  0  0  0
   20.3830  -23.9370  -14.9120 O   0  0  0  0  0  0  0  0  0  0  0  0
   20.1340  -25.6640  -12.2970 H   0  0  0  0  0  0  0  0  0  0  0  0
   18.5810  -25.8030  -13.7240 C   0  0  0  0  0  2  0  0  0  0  0  0
   15.2360  -23.2320  -12.6540 C   0  0  0  0  0  0  0  0  0  0  0  0
   16.2850  -23.4490  -11.7360 C   0  0  0  0  0  3  0  0  0  0  0  0
   17.3680  -24.2760  -12.0800 C   0  0  0  0  0  3  0  0  0  0  0  0
   15.2870  -23.8470  -13.9230 C   0  0  0  0  0  3  0  0  0  0  0  0
   16.3730  -24.6740  -14.2660 C   0  0  0  0  0  3  0  0  0  0  0  0
   17.4180  -24.8960  -13.3480 C   0  0  0  0  0  0  0  0  0  0  0  0
   12.1070  -23.7030  -13.2810 C   0  0  0  0  0  1  0  0  0  0  0  0
   12.7690  -22.5790  -12.5090 C   0  0  0  0  0  0  0  0  0  0  0  0
   11.9560  -21.6300  -11.9250 N   0  0  0  0  0  0  0  0  0  0  0  0
   12.5980  -20.7000  -11.0030 C   0  0  0  0  0  2  0  0  0  0  0  0
   14.3650  -20.9650  -11.3120 S   0  0  0  0  0  0  0  0  0  0  0  0
   14.0740  -22.4270  -12.2420 C   0  0  0  0  0  0  0  0  0  0  0  0
   10.9420  -21.6780  -11.9460 H   0  0  0  0  0  0  0  0  0  0  0  0
   23.3400  -22.2700  -10.8250 O   0  0  0  0  0  0  0  0  0  0  0  0
   23.5430  -23.1960  -10.9250 H   0  0  0  0  0  0  0  0  0  0  0  0
   24.5150  -23.0360  -16.8930 C   0  0  1  0  0  0  0  0  0  0  0  0
   25.8220  -22.4310  -17.4680 C   0  0  0  0  0  1  0  0  0  0  0  0
   24.0350  -24.1370  -17.8720 C   0  0  0  0  0  1  0  0  0  0  0  0
   23.4590  -21.9230  -16.8750 C   0  0  0  0  0  1  0  0  0  0  0  0
  2  1  1  0
  4 11  1  0
  5  9  1  0
  5 12  1  0
  6 11  1  0
  6  3  1  0
  7 12  1  0
  7  6  1  0
  8 14  1  0
  8  7  1  0
  8  4  1  0
  9 41  1  0
 10  1  1  0
 10  3  1  0
 13  9  1  0
 13  2  1  0
 15 14  1  0
 15 16  2  0
 17 15  1  0
 18 17  1  0
 18 20  1  0
 18 19  1  0
 19 33  2  0
 20 25  1  0
 21 22  1  0
 21 20  2  0
 22 23  2  0
 23 25  1  0
 23 24  1  0
 25 26  1  0
 26 32  2  0
 26 27  1  0
 27 28  1  0
 28 29  1  0
 30 31  1  0
 30 28  2  0
 32 30  1  0
 33 34  1  0
 33 32  1  0
 34 35  1  0
 35 36  2  0
 37 38  1  0
 37 36  1  0
 39 37  2  0
 40 39  1  0
 40 34  2  0
 41 43  1  0
 42 46  1  0
 42 43  1  0
 43 44  2  0
 45 42  1  0
 46 52  1  0
 47 55  1  0
 47 48  1  0
 48 49  1  0
 49 72  1  0
 50 49  1  0
 51 50  1  0
 51 47  1  0
 52 51  1  0
 53 52  2  0
 54 57  1  0
 55 54  1  0
 56 55  2  0
 58 64  1  0
 58 54  1  0
 59 70  1  0
 59 60  1  0
 61 60  2  0
 62 59  2  0
 63 62  1  0
 63 64  2  0
 64 61  1  0
 65 66  1  0
 66 70  2  0
 66 67  1  0
 67 68  1  0
 69 68  1  0
 70 69  1  0
 71 67  1  0
 73 72  1  0
 74 77  1  1
 74 46  1  0
 75 74  1  0
 76 74  1  0
M  ISO  4  14 100  15 100  41 101  43 101
M  END
>  <TORSDO>  (3) 
F 15

>  <SCORE>  (3) 
-12.361

>  <name>  (3) 
2

>  <ligand_id>  (3) 
2

>  <original_smiles>  (3) 
[H]OC1([H])C([H])([H])N(C(=O)C([H])(N([H])C(=O)OC2([H])OC([H])([H])C([H])([H])OC([H])([H])C3([H])OC([H])([H])C([H])(OC(=O)C([H])([H])C4([H])N=C(c5c([H])c([H])c(Cl)c([H])c5[H])c5c(sc(C([H])([H])[H])c5C([H])([H])[H])-n5c(C([H])([H])[H])nnc54)C3([H])OC2([H])[H])C(C([H])([H])[H])(C([H])([H])[H])C([H])([H])[H])C([H])(C(=O)N([H])C([H])([H])c2c([H])c([H])c(C3=C(C([H])([H])[H])N([H])C([H])([H])S3)c([H])c2[H])C1([H])[H]

>  <smiles>  (3) 
[H]OC1([H])C([H])([H])N(C(=O)C([H])(N([H])C(=O)OC2([H])OC([H])([H])C([H])([H])OC([H])([H])C3([H])OC([H])([H])C([H])(OC(=O)C([H])([H])C4([H])N=C(c5c([H])c([H])c(Cl)c([H])c5[H])c5c(sc(C([H])([H])[H])c5C([H])([H])[H])-n5c(C([H])([H])[H])nnc54)C3([H])OC2([H])[H])C(C([H])([H])[H])(C([H])([H])[H])C([H])([H])[H])C([H])(C(=O)N([H])C([H])([H])c2c([H])c([H])c(C3=C(C([H])([H])[H])N([H])C([H])([H])S3)c([H])c2[H])C1([H])[H]

$$$$
3:0:0
     RDKit          3D

 79 86  0  0  1  0  0  0  0  0999 V2000
   24.2840  -27.3260  -15.6510 C   0  0  0  0  0  0  0  0  0  0  0  0
   23.0820  -27.0450  -17.9530 C   0  0  0  0  0  3  0  0  0  0  0  0
   23.9140  -27.7480  -17.1360 C   0  0  0  0  0  3  0  0  0  0  0  0
   23.0690  -27.3170  -19.4400 C   0  0  0  0  0  2  0  0  0  0  0  0
   24.1990  -29.1650  -17.6860 C   0  0  0  0  0  2  0  0  0  0  0  0
   22.4710  -28.6770  -19.6720 C   0  0  0  0  0  2  0  0  0  0  0  0
   23.1660  -29.7290  -18.7850 C   0  0  0  0  0  3  0  0  0  0  0  0
   21.8280  -26.3020  -17.5160 C   0  0  0  0  0  1  0  0  0  0  0  0
   22.7530  -32.2010  -18.4450 C   0  0  0  0  0  1  0  0  0  0  0  0
   22.0890  -30.8080  -18.3950 C   0  0  0  0  0  3  0  0  0  0  0  0
   20.2000  -31.0030  -16.5560 C   0  0  0  0  0  0  0  0  0  0  0  0
   19.6700  -30.4320  -15.5970 O   0  0  0  0  0  0  0  0  0  0  0  0
   21.2540  -30.4210  -17.2080 N   0  0  0  0  0  0  0  0  0  0  0  0
   21.4710  -29.4990  -16.8590 H   0  0  0  0  0  0  0  0  0  0  0  0
   19.8310  -32.4740  -16.8170 C   0  0  0  0  0  2  0  0  0  0  0  0
   20.4940  -33.3740  -15.7320 C   0  0  0  0  0  3  0  0  0  0  0  0
   21.8320  -32.8520  -15.4600 N   0  0  0  0  0  0  0  0  0  0  0  0
   20.6010  -34.8460  -16.0710 C   0  0  0  0  0  0  0  0  0  0  0  0
   20.2860  -35.4250  -17.2370 N   0  0  0  0  0  0  0  0  0  0  0  0
   20.6470  -36.7530  -17.1020 N   0  0  0  0  0  0  0  0  0  0  0  0
   21.1550  -36.8700  -15.8710 C   0  0  0  0  0  0  0  0  0  0  0  0
   21.7290  -38.1450  -15.3330 C   0  0  0  0  0  1  0  0  0  0  0  0
   21.1200  -35.7130  -15.1760 N   0  0  0  0  0  0  0  0  0  0  0  0
   21.5120  -35.4230  -13.8500 C   0  0  0  0  0  0  0  0  0  0  0  0
   21.2430  -36.4370  -12.4690 S   0  0  0  0  0  0  0  0  0  0  0  0
   21.9030  -35.2310  -11.3970 C   0  0  0  0  0  0  0  0  0  0  0  0
   21.9640  -35.5020   -9.9280 C   0  0  0  0  0  1  0  0  0  0  0  0
   22.2930  -34.0950  -12.0700 C   0  0  0  0  0  0  0  0  0  0  0  0
   22.8200  -32.8700  -11.3670 C   0  0  0  0  0  1  0  0  0  0  0  0
   22.1100  -34.2360  -13.4880 C   0  0  0  0  0  0  0  0  0  0  0  0
   22.5380  -33.2000  -14.4630 C   0  0  0  0  0  0  0  0  0  0  0  0
   23.8620  -32.5580  -14.3000 C   0  0  0  0  0  0  0  0  0  0  0  0
   24.9960  -33.3180  -13.9440 C   0  0  0  0  0  3  0  0  0  0  0  0
   26.2450  -32.6880  -13.7670 C   0  0  0  0  0  3  0  0  0  0  0  0
   26.3680  -31.3000  -13.9540 C   0  0  0  0  0  0  0  0  0  0  0  0
   27.8760  -30.5020  -13.7130 Cl  0  0  0  0  0  0  0  0  0  0  0  0
   25.2570  -30.5560  -14.3560 C   0  0  0  0  0  3  0  0  0  0  0  0
   24.0010  -31.1780  -14.5080 C   0  0  0  0  0  3  0  0  0  0  0  0
   25.3780  -24.6690  -15.5630 N   0  0  0  0  0  0  0  0  0  0  0  0
   26.0370  -25.5440  -14.8290 C   0  0  0  0  0  0  0  0  0  0  0  0
   26.8260  -25.1770  -13.9390 O   0  0  0  0  0  0  0  0  0  0  0  0
   25.6760  -26.8220  -15.2170 N   0  0  0  0  0  4  0  0  0  0  0  0
   24.9190  -25.0890  -16.3550 H   0  0  0  0  0  0  0  0  0  0  0  0
   26.2580  -27.5350  -14.7980 H   0  0  0  0  0  0  0  0  0  0  0  0
   24.6740  -23.4740  -15.1180 C   0  0  0  0  0  3  0  0  0  0  0  0
   21.4890  -23.6030  -12.7720 C   0  0  0  0  0  3  0  0  0  0  0  0
   21.0550  -22.3610  -11.9890 C   0  0  0  0  0  2  0  0  0  0  0  0
   22.3460  -21.5970  -11.7550 C   0  0  0  0  0  3  0  0  0  0  0  0
   23.2390  -21.9270  -12.9460 C   0  0  0  0  0  2  0  0  0  0  0  0
   22.7230  -23.1770  -13.4800 N   0  0  0  0  0  0  0  0  0  0  0  0
   23.3390  -23.9030  -14.4250 C   0  0  0  0  0  0  0  0  0  0  0  0
   22.8210  -24.9420  -14.7550 O   0  0  0  0  0  0  0  0  0  0  0  0
   19.5460  -25.0630  -13.0970 N   0  0  0  0  0  0  0  0  0  0  0  0
   20.3170  -24.1120  -13.6400 C   0  0  0  0  0  0  0  0  0  0  0  0
   20.0890  -23.6170  -14.7460 O   0  0  0  0  0  0  0  0  0  0  0  0
   19.8110  -25.4290  -12.1940 H   0  0  0  0  0  0  0  0  0  0  0  0
   18.2870  -25.5400  -13.6580 C   0  0  0  0  0  2  0  0  0  0  0  0
   14.8930  -23.0500  -12.5460 C   0  0  0  0  0  0  0  0  0  0  0  0
   15.9420  -23.2690  -11.6320 C   0  0  0  0  0  3  0  0  0  0  0  0
   17.0390  -24.0710  -11.9890 C   0  0  0  0  0  3  0  0  0  0  0  0
   14.9530  -23.6410  -13.8260 C   0  0  0  0  0  3  0  0  0  0  0  0
   16.0540  -24.4440  -14.1840 C   0  0  0  0  0  3  0  0  0  0  0  0
   17.1030  -24.6640  -13.2670 C   0  0  0  0  0  0  0  0  0  0  0  0
   11.7660  -23.5790  -13.1410 C   0  0  0  0  0  1  0  0  0  0  0  0
   12.4150  -22.4450  -12.3720 C   0  0  0  0  0  0  0  0  0  0  0  0
   11.5900  -21.5120  -11.7760 N   0  0  0  0  0  0  0  0  0  0  0  0
   12.2250  -20.5710  -10.8590 C   0  0  0  0  0  2  0  0  0  0  0  0
   13.9930  -20.8020  -11.1900 S   0  0  0  0  0  0  0  0  0  0  0  0
   13.7200  -22.2690  -12.1190 C   0  0  0  0  0  0  0  0  0  0  0  0
   10.5760  -21.5780  -11.7870 H   0  0  0  0  0  0  0  0  0  0  0  0
   22.9780  -22.0580  -10.5740 O   0  0  0  0  0  0  0  0  0  0  0  0
   23.1450  -22.9910  -10.6670 H   0  0  0  0  0  0  0  0  0  0  0  0
   24.4550  -22.6310  -16.4280 C   0  0  1  0  0  0  0  0  0  0  0  0
   25.8130  -22.0610  -16.8950 C   0  0  0  0  0  1  0  0  0  0  0  0
   23.8710  -23.4430  -17.5980 C   0  0  0  0  0  1  0  0  0  0  0  0
   23.4910  -21.4530  -16.1980 C   0  0  0  0  0  1  0  0  0  0  0  0
   23.4870  -28.0470  -14.5220 C   0  0  0  0  0  2  0  0  0  0  0  0
   21.5220  -28.2730  -12.8880 C   0  0  0  0  0  1  0  0  0  0  0  0
   22.2970  -27.3480  -13.8400 C   0  0  0  0  0  2  0  0  0  0  0  0
  1 42  2  3
  1 77  1  0
  2  8  1  0
  2  3  1  0
  3  1  1  0
  4  2  1  0
  5  3  1  0
  6  4  1  0
  6  7  1  0
  7 10  1  0
  7  5  1  0
 10  9  1  0
 10 13  1  0
 11 12  2  0
 13 14  1  0
 13 11  1  0
 15 11  1  0
 16 15  1  0
 16 17  1  0
 17 31  2  0
 18 16  1  0
 18 23  1  0
 19 20  1  0
 19 18  2  0
 20 21  2  0
 21 22  1  0
 21 23  1  0
 23 24  1  0
 24 30  2  0
 24 25  1  0
 25 26  1  0
 26 27  1  0
 28 26  2  0
 28 29  1  0
 30 28  1  0
 31 32  1  0
 31 30  1  0
 32 33  1  0
 33 34  2  0
 35 34  1  0
 35 36  1  0
 37 35  2  0
 38 37  1  0
 38 32  2  0
 39 45  1  0
 39 40  1  0
 40 41  2  0
 42 40  1  0
 42 44  1  0
 43 39  1  0
 45 51  1  0
 46 54  1  0
 46 47  1  0
 47 48  1  0
 48 71  1  0
 49 48  1  0
 50 49  1  0
 50 46  1  0
 51 50  1  0
 52 51  2  0
 53 56  1  0
 54 53  1  0
 55 54  2  0
 57 63  1  0
 57 53  1  0
 58 69  1  0
 58 59  1  0
 60 59  2  0
 61 58  2  0
 62 61  1  0
 62 63  2  0
 63 60  1  0
 64 65  1  0
 65 69  2  0
 65 66  1  0
 66 67  1  0
 68 67  1  0
 69 68  1  0
 70 66  1  0
 72 71  1  0
 73 76  1  1
 73 45  1  0
 74 73  1  0
 75 73  1  0
 77 79  1  0
 79 78  1  0
M  ISO  4  11 100  13 100  40 101  42 101
M  END
>  <TORSDO>  (4) 
F 17

>  <SCORE>  (4) 
-6.563

>  <name>  (4) 
3

>  <ligand_id>  (4) 
3

>  <original_smiles>  (4) 
[H]OC1([H])C([H])([H])N(C(=O)C([H])(N([H])C(=O)N([H])C([H])(C2=C(C([H])([H])[H])C([H])([H])C([H])([H])C([H])(C([H])(N([H])C(=O)C([H])([H])C3([H])N=C(c4c([H])c([H])c(Cl)c([H])c4[H])c4c(sc(C([H])([H])[H])c4C([H])([H])[H])-n4c(C([H])([H])[H])nnc43)C([H])([H])[H])C2([H])[H])C([H])([H])C([H])([H])C([H])([H])[H])C(C([H])([H])[H])(C([H])([H])[H])C([H])([H])[H])C([H])(C(=O)N([H])C([H])([H])c2c([H])c([H])c(C3=C(C([H])([H])[H])N([H])C([H])([H])S3)c([H])c2[H])C1([H])[H]

>  <smiles>  (4) 
[H]OC1([H])C([H])([H])N(C(=O)C([H])(N([H])C(=O)N([H])C([H])(C2=C(C([H])([H])[H])C([H])([H])C([H])([H])C([H])(C([H])(N([H])C(=O)C([H])([H])C3([H])N=C(c4c([H])c([H])c(Cl)c([H])c4[H])c4c(sc(C([H])([H])[H])c4C([H])([H])[H])-n4c(C([H])([H])[H])nnc43)C([H])([H])[H])C2([H])[H])C([H])([H])C([H])([H])C([H])([H])[H])C(C([H])([H])[H])(C([H])([H])[H])C([H])([H])[H])C([H])(C(=O)N([H])C([H])([H])c2c([H])c([H])c(C3=C(C([H])([H])[H])N([H])C([H])([H])S3)c([H])c2[H])C1([H])[H]

$$$$
4:0:0
     RDKit          3D

 80 86  0  0  1  0  0  0  0  0999 V2000
   25.7830  -24.6370  -15.4250 N   0  0  0  0  0  0  0  0  0  0  0  0
   26.7780  -25.1570  -14.7180 C   0  0  0  0  0  0  0  0  0  0  0  0
   27.3250  -24.5630  -13.7900 O   0  0  0  0  0  0  0  0  0  0  0  0
   24.4530  -28.3370  -16.8800 C   0  0  0  0  0  0  0  0  0  0  0  0
   26.6300  -27.2590  -16.0240 C   0  0  0  0  0  0  0  0  0  0  0  0
   25.0860  -28.9060  -17.9160 N   0  0  0  0  0  4  0  0  0  0  0  0
   25.1700  -27.5280  -16.0120 N   0  0  0  0  0  0  0  0  0  0  0  0
   27.1830  -26.3610  -15.1550 N   0  0  0  0  0  0  0  0  0  0  0  0
   23.0960  -28.5530  -16.7170 N   0  0  0  0  0  0  0  0  0  0  0  0
   27.3710  -27.8880  -16.7970 O   0  0  0  0  0  0  0  0  0  0  0  0
   25.5540  -25.0640  -16.3040 H   0  0  0  0  0  0  0  0  0  0  0  0
   26.0900  -28.7480  -18.0060 H   0  0  0  0  0  0  0  0  0  0  0  0
   24.5690  -29.3020  -18.7190 H   0  0  0  0  0  0  0  0  0  0  0  0
   24.5880  -27.0820  -15.3160 H   0  0  0  0  0  0  0  0  0  0  0  0
   28.1450  -26.5000  -14.8920 H   0  0  0  0  0  0  0  0  0  0  0  0
   22.6730  -28.1880  -15.8810 H   0  0  0  0  0  0  0  0  0  0  0  0
   24.9410  -23.5070  -15.0790 C   0  0  0  0  0  3  0  0  0  0  0  0
   21.7970  -23.7780  -12.7390 C   0  0  0  0  0  3  0  0  0  0  0  0
   21.2980  -22.5220  -12.0010 C   0  0  0  0  0  2  0  0  0  0  0  0
   22.5440  -21.6830  -11.8020 C   0  0  0  0  0  3  0  0  0  0  0  0
   23.4450  -22.0300  -12.9850 C   0  0  0  0  0  2  0  0  0  0  0  0
   22.9980  -23.3380  -13.4750 N   0  0  0  0  0  0  0  0  0  0  0  0
   23.6820  -24.0910  -14.3700 C   0  0  0  0  0  0  0  0  0  0  0  0
   23.3710  -25.2640  -14.6130 O   0  0  0  0  0  0  0  0  0  0  0  0
   19.8790  -25.2600  -13.0020 N   0  0  0  0  0  0  0  0  0  0  0  0
   20.6570  -24.3500  -13.5980 C   0  0  0  0  0  0  0  0  0  0  0  0
   20.4540  -23.9260  -14.7390 O   0  0  0  0  0  0  0  0  0  0  0  0
   20.1300  -25.5620  -12.0710 H   0  0  0  0  0  0  0  0  0  0  0  0
   18.6330  -25.7820  -13.5490 C   0  0  0  0  0  2  0  0  0  0  0  0
   15.1880  -23.2780  -12.6410 C   0  0  0  0  0  0  0  0  0  0  0  0
   16.2050  -23.4590  -11.6810 C   0  0  0  0  0  3  0  0  0  0  0  0
   17.3200  -24.2640  -11.9720 C   0  0  0  0  0  3  0  0  0  0  0  0
   15.3030  -23.9060  -13.8990 C   0  0  0  0  0  3  0  0  0  0  0  0
   16.4200  -24.7110  -14.1920 C   0  0  0  0  0  3  0  0  0  0  0  0
   17.4340  -24.8970  -13.2290 C   0  0  0  0  0  0  0  0  0  0  0  0
   12.1040  -23.7970  -13.4350 C   0  0  0  0  0  1  0  0  0  0  0  0
   12.7060  -22.6680  -12.6230 C   0  0  0  0  0  0  0  0  0  0  0  0
   11.8480  -21.7400  -12.0740 N   0  0  0  0  0  0  0  0  0  0  0  0
   12.4240  -20.8020  -11.1180 C   0  0  0  0  0  2  0  0  0  0  0  0
   14.2100  -21.0360  -11.3350 S   0  0  0  0  0  0  0  0  0  0  0  0
   13.9910  -22.4960  -12.2860 C   0  0  0  0  0  0  0  0  0  0  0  0
   10.8370  -21.8050  -12.1480 H   0  0  0  0  0  0  0  0  0  0  0  0
   23.2030  -22.0500  -10.5990 O   0  0  0  0  0  0  0  0  0  0  0  0
   23.4280  -22.9740  -10.6530 H   0  0  0  0  0  0  0  0  0  0  0  0
   24.6280  -22.7530  -16.4200 C   0  0  1  0  0  0  0  0  0  0  0  0
   25.9270  -22.0840  -16.9300 C   0  0  0  0  0  1  0  0  0  0  0  0
   24.1080  -23.6820  -17.5470 C   0  0  0  0  0  1  0  0  0  0  0  0
   23.5940  -21.6310  -16.1980 C   0  0  0  0  0  1  0  0  0  0  0  0
   21.9930  -29.0750  -17.6230 C   0  0  0  0  0  3  0  0  0  0  0  0
   20.6910  -31.2840  -16.9730 C   0  0  0  0  0  0  0  0  0  0  0  0
   19.8530  -30.8560  -16.1710 O   0  0  0  0  0  0  0  0  0  0  0  0
   21.7130  -30.5320  -17.5110 N   0  0  0  0  0  0  0  0  0  0  0  0
   22.3360  -31.0020  -18.1490 H   0  0  0  0  0  0  0  0  0  0  0  0
   20.7030  -32.8050  -17.2690 C   0  0  0  0  0  2  0  0  0  0  0  0
   21.2010  -33.6360  -16.0420 C   0  0  0  0  0  3  0  0  0  0  0  0
   22.5470  -33.1750  -15.7120 N   0  0  0  0  0  0  0  0  0  0  0  0
   21.2240  -35.1530  -16.2040 C   0  0  0  0  0  0  0  0  0  0  0  0
   21.0040  -35.8510  -17.3230 N   0  0  0  0  0  0  0  0  0  0  0  0
   21.2560  -37.1760  -17.0010 N   0  0  0  0  0  0  0  0  0  0  0  0
   21.6090  -37.1800  -15.7130 C   0  0  0  0  0  0  0  0  0  0  0  0
   22.0290  -38.4170  -14.9730 C   0  0  0  0  0  1  0  0  0  0  0  0
   21.5820  -35.9440  -15.1610 N   0  0  0  0  0  0  0  0  0  0  0  0
   21.8590  -35.5300  -13.8410 C   0  0  0  0  0  0  0  0  0  0  0  0
   21.3690  -36.3550  -12.3930 S   0  0  0  0  0  0  0  0  0  0  0  0
   21.9980  -35.0740  -11.3990 C   0  0  0  0  0  0  0  0  0  0  0  0
   21.8800  -35.1820   -9.9120 C   0  0  0  0  0  1  0  0  0  0  0  0
   22.5450  -34.0520  -12.1460 C   0  0  0  0  0  0  0  0  0  0  0  0
   23.0960  -32.7960  -11.5140 C   0  0  0  0  0  1  0  0  0  0  0  0
   22.5020  -34.3390  -13.5550 C   0  0  0  0  0  0  0  0  0  0  0  0
   23.1040  -33.4490  -14.5960 C   0  0  0  0  0  0  0  0  0  0  0  0
   24.4300  -32.8550  -14.3520 C   0  0  0  0  0  0  0  0  0  0  0  0
   25.4700  -33.6420  -13.8110 C   0  0  0  0  0  3  0  0  0  0  0  0
   26.7290  -33.0700  -13.5520 C   0  0  0  0  0  3  0  0  0  0  0  0
   26.9500  -31.7080  -13.8280 C   0  0  0  0  0  0  0  0  0  0  0  0
   28.4830  -30.9940  -13.5000 Cl  0  0  0  0  0  0  0  0  0  0  0  0
   25.9160  -30.9230  -14.3590 C   0  0  0  0  0  3  0  0  0  0  0  0
   24.6550  -31.4890  -14.6280 C   0  0  0  0  0  3  0  0  0  0  0  0
   22.1770  -28.7370  -19.1350 C   0  0  0  0  0  0  0  0  0  0  0  0
   23.0390  -29.3700  -19.7890 O   0  0  0  0  0  0  0  0  0  0  0  0
   21.4720  -27.8600  -19.6660 O   0  0  0  0  0  1  0  0  0  0  0  0
  1 17  1  0
  1  2  1  0
  2  3  2  0
  4  9  1  0
  4  7  1  0
  5  7  1  0
  5  8  1  0
  6  4  2  0
  7 14  1  0
  8 15  1  0
  8  2  1  0
  9 16  1  0
 10  5  2  0
 11  1  1  0
 12  6  1  0
 13  6  1  0
 17 23  1  0
 18 26  1  0
 18 19  1  0
 19 20  1  0
 20 43  1  0
 21 20  1  0
 22 21  1  0
 22 18  1  0
 23 22  1  0
 24 23  2  0
 25 28  1  0
 26 25  1  0
 27 26  2  0
 29 35  1  0
 29 25  1  0
 30 41  1  0
 30 31  1  0
 32 31  2  0
 33 30  2  0
 34 33  1  0
 34 35  2  0
 35 32  1  0
 36 37  1  0
 37 41  2  0
 37 38  1  0
 38 39  1  0
 40 39  1  0
 41 40  1  0
 42 38  1  0
 44 43  1  0
 45 48  1  1
 45 17  1  0
 46 45  1  0
 47 45  1  0
 49 78  1  0
 49 52  1  0
 49  9  1  0
 50 51  2  0
 52 50  1  0
 53 52  1  0
 54 50  1  0
 55 54  1  0
 55 56  1  0
 56 70  2  0
 57 55  1  0
 57 62  1  0
 58 59  1  0
 58 57  2  0
 59 60  2  0
 60 62  1  0
 60 61  1  0
 62 63  1  0
 63 69  2  0
 63 64  1  0
 64 65  1  0
 65 66  1  0
 67 68  1  0
 67 65  2  0
 69 67  1  0
 70 71  1  0
 70 69  1  0
 71 72  1  0
 72 73  2  0
 74 73  1  0
 74 75  1  0
 76 74  2  0
 77 76  1  0
 77 71  2  0
 79 78  2  0
 80 78  1  0
M  ISO  4   2 101   8 101  50 100  52 100
M  END
>  <TORSDO>  (5) 
F 14

>  <SCORE>  (5) 
-14.143

>  <name>  (5) 
4

>  <ligand_id>  (5) 
4

>  <original_smiles>  (5) 
[H]OC1([H])C([H])([H])N(C(=O)C([H])(N([H])C(=O)N([H])C(=O)N([H])C(N([H])[H])=[N+]([H])C([H])(C(=O)[O-])N([H])C(=O)C([H])([H])C2([H])N=C(c3c([H])c([H])c(Cl)c([H])c3[H])c3c(sc(C([H])([H])[H])c3C([H])([H])[H])-n3c(C([H])([H])[H])nnc32)C(C([H])([H])[H])(C([H])([H])[H])C([H])([H])[H])C([H])(C(=O)N([H])C([H])([H])c2c([H])c([H])c(C3=C(C([H])([H])[H])N([H])C([H])([H])S3)c([H])c2[H])C1([H])[H]

>  <smiles>  (5) 
[H]OC1([H])C([H])([H])N(C(=O)C([H])(N([H])C(=O)N([H])C(=O)N([H])C(N([H])[H])=[N+]([H])C([H])(C(=O)[O-])N([H])C(=O)C([H])([H])C2([H])N=C(c3c([H])c([H])c(Cl)c([H])c3[H])c3c(sc(C([H])([H])[H])c3C([H])([H])[H])-n3c(C([H])([H])[H])nnc32)C(C([H])([H])[H])(C([H])([H])[H])C([H])([H])[H])C([H])(C(=O)N([H])C([H])([H])c2c([H])c([H])c(C3=C(C([H])([H])[H])N([H])C([H])([H])S3)c([H])c2[H])C1([H])[H]

$$$$
5:0:0
     RDKit          3D

 75 82  0  0  1  0  0  0  0  0999 V2000
   28.2480  -28.2210  -15.0590 C   0  0  0  0  0  2  0  0  0  0  0  0
   29.1680  -28.4420  -13.8360 C   0  0  0  0  0  2  0  0  0  0  0  0
   27.6570  -29.9550  -12.7260 C   0  0  0  0  0  2  0  0  0  0  0  0
   26.1530  -29.6810  -12.9700 C   0  0  0  0  0  2  0  0  0  0  0  0
   27.0190  -27.3450  -14.7380 C   0  0  0  0  0  3  0  0  0  0  0  0
   25.6120  -28.1440  -14.8110 C   0  0  0  0  0  3  0  0  0  0  0  0
   28.4390  -28.7670  -12.6530 O   0  0  0  0  0  0  0  0  0  0  0  0
   25.8190  -29.4520  -14.3420 O   0  0  0  0  0  0  0  0  0  0  0  0
   26.5310  -25.1850  -15.8820 N   0  0  0  0  0  0  0  0  0  0  0  0
   27.2790  -25.8210  -14.9800 C   0  0  0  0  0  0  0  0  0  0  0  0
   28.0080  -25.2070  -14.1880 O   0  0  0  0  0  0  0  0  0  0  0  0
   26.0200  -25.8060  -16.5000 H   0  0  0  0  0  0  0  0  0  0  0  0
   25.7000  -24.0400  -15.4780 C   0  0  0  0  0  3  0  0  0  0  0  0
   22.5690  -24.6900  -13.1810 C   0  0  0  0  0  3  0  0  0  0  0  0
   22.0180  -23.5760  -12.2800 C   0  0  0  0  0  2  0  0  0  0  0  0
   23.2200  -22.7070  -11.9760 C   0  0  0  0  0  3  0  0  0  0  0  0
   24.1260  -22.8390  -13.2020 C   0  0  0  0  0  2  0  0  0  0  0  0
   23.7410  -24.0940  -13.8560 N   0  0  0  0  0  0  0  0  0  0  0  0
   24.4240  -24.6910  -14.8610 C   0  0  0  0  0  0  0  0  0  0  0  0
   24.0970  -25.8050  -15.2770 O   0  0  0  0  0  0  0  0  0  0  0  0
   20.6370  -26.1260  -13.5800 N   0  0  0  0  0  0  0  0  0  0  0  0
   21.4530  -25.2060  -14.1050 C   0  0  0  0  0  0  0  0  0  0  0  0
   21.3100  -24.7430  -15.2390 O   0  0  0  0  0  0  0  0  0  0  0  0
   20.8360  -26.4650  -12.6490 H   0  0  0  0  0  0  0  0  0  0  0  0
   19.4100  -26.6050  -14.2020 C   0  0  0  0  0  2  0  0  0  0  0  0
   15.9780  -24.0620  -13.3680 C   0  0  0  0  0  0  0  0  0  0  0  0
   16.9350  -24.3090  -12.3630 C   0  0  0  0  0  3  0  0  0  0  0  0
   18.0460  -25.1290  -12.6300 C   0  0  0  0  0  3  0  0  0  0  0  0
   16.1470  -24.6380  -14.6440 C   0  0  0  0  0  3  0  0  0  0  0  0
   17.2600  -25.4580  -14.9110 C   0  0  0  0  0  3  0  0  0  0  0  0
   18.2150  -25.7090  -13.9060 C   0  0  0  0  0  0  0  0  0  0  0  0
   12.9270  -24.4850  -14.3200 C   0  0  0  0  0  1  0  0  0  0  0  0
   13.5100  -23.3960  -13.4440 C   0  0  0  0  0  0  0  0  0  0  0  0
   12.6460  -22.4640  -12.9070 N   0  0  0  0  0  0  0  0  0  0  0  0
   13.1970  -21.5640  -11.9000 C   0  0  0  0  0  2  0  0  0  0  0  0
   14.9840  -21.8430  -12.0290 S   0  0  0  0  0  0  0  0  0  0  0  0
   14.7820  -23.2640  -13.0420 C   0  0  0  0  0  0  0  0  0  0  0  0
   11.6380  -22.5070  -13.0250 H   0  0  0  0  0  0  0  0  0  0  0  0
   23.9060  -23.1930  -10.8330 O   0  0  0  0  0  0  0  0  0  0  0  0
   24.1650  -24.0950  -10.9920 H   0  0  0  0  0  0  0  0  0  0  0  0
   25.3800  -23.1360  -16.7230 C   0  0  1  0  0  0  0  0  0  0  0  0
   26.6600  -22.3740  -17.1270 C   0  0  0  0  0  1  0  0  0  0  0  0
   24.8820  -23.9360  -17.9520 C   0  0  0  0  0  1  0  0  0  0  0  0
   24.3100  -22.0680  -16.3910 C   0  0  0  0  0  1  0  0  0  0  0  0
   24.9390  -28.2250  -16.0780 O   0  0  0  0  0  0  0  0  0  0  0  0
   23.5790  -28.8040  -15.9880 C   0  0  0  0  0  2  0  0  0  0  0  0
   22.8250  -29.3460  -17.2900 C   0  0  0  0  0  2  0  0  0  0  0  0
   21.1100  -31.3170  -17.0470 C   0  0  0  0  0  0  0  0  0  0  0  0
   20.2750  -30.6350  -16.4670 O   0  0  0  0  0  0  0  0  0  0  0  0
   22.3270  -30.7700  -17.3810 N   0  0  0  0  0  0  0  0  0  0  0  0
   22.9990  -31.4310  -17.7470 H   0  0  0  0  0  0  0  0  0  0  0  0
   20.8670  -32.8570  -17.1590 C   0  0  0  0  0  2  0  0  0  0  0  0
   21.3250  -33.5460  -15.8410 C   0  0  0  0  0  3  0  0  0  0  0  0
   22.7630  -33.3400  -15.7600 N   0  0  0  0  0  0  0  0  0  0  0  0
   21.0430  -35.0270  -15.6240 C   0  0  0  0  0  0  0  0  0  0  0  0
   20.5610  -35.9100  -16.5080 N   0  0  0  0  0  0  0  0  0  0  0  0
   20.6200  -37.1440  -15.8780 N   0  0  0  0  0  0  0  0  0  0  0  0
   21.1450  -36.9140  -14.6700 C   0  0  0  0  0  0  0  0  0  0  0  0
   21.4510  -37.9940  -13.6740 C   0  0  0  0  0  1  0  0  0  0  0  0
   21.3940  -35.6070  -14.4520 N   0  0  0  0  0  0  0  0  0  0  0  0
   21.9080  -34.9550  -13.3080 C   0  0  0  0  0  0  0  0  0  0  0  0
   21.4760  -35.3030  -11.6620 S   0  0  0  0  0  0  0  0  0  0  0  0
   22.4430  -33.9740  -11.0810 C   0  0  0  0  0  0  0  0  0  0  0  0
   22.5150  -33.6880   -9.6140 C   0  0  0  0  0  1  0  0  0  0  0  0
   23.0470  -33.2840  -12.1090 C   0  0  0  0  0  0  0  0  0  0  0  0
   23.8660  -32.0410  -11.8840 C   0  0  0  0  0  1  0  0  0  0  0  0
   22.7800  -33.8920  -13.3850 C   0  0  0  0  0  0  0  0  0  0  0  0
   23.3970  -33.4270  -14.6600 C   0  0  0  0  0  0  0  0  0  0  0  0
   24.8310  -33.0770  -14.6970 C   0  0  0  0  0  0  0  0  0  0  0  0
   25.7440  -33.7100  -13.8300 C   0  0  0  0  0  3  0  0  0  0  0  0
   27.1040  -33.3520  -13.8580 C   0  0  0  0  0  3  0  0  0  0  0  0
   27.5560  -32.3650  -14.7500 C   0  0  0  0  0  0  0  0  0  0  0  0
   29.2230  -31.9320  -14.7600 Cl  0  0  0  0  0  0  0  0  0  0  0  0
   26.6550  -31.7710  -15.6490 C   0  0  0  0  0  3  0  0  0  0  0  0
   25.3000  -32.1240  -15.6180 C   0  0  0  0  0  3  0  0  0  0  0  0
  1  5  1  0
  1  2  1  0
  2  7  1  0
  3  7  1  0
  4  3  1  0
  5 10  1  0
  6 45  1  0
  6  5  1  0
  6  8  1  0
  8  4  1  0
  9 13  1  0
  9 10  1  0
 10 11  2  0
 12  9  1  0
 13 19  1  0
 14 22  1  0
 14 15  1  0
 15 16  1  0
 16 39  1  0
 17 16  1  0
 18 17  1  0
 18 14  1  0
 19 18  1  0
 20 19  2  0
 21 24  1  0
 22 21  1  0
 23 22  2  0
 25 31  1  0
 25 21  1  0
 26 37  1  0
 26 27  1  0
 28 27  2  0
 29 26  2  0
 30 29  1  0
 30 31  2  0
 31 28  1  0
 32 33  1  0
 33 37  2  0
 33 34  1  0
 34 35  1  0
 36 35  1  0
 37 36  1  0
 38 34  1  0
 40 39  1  0
 41 44  1  1
 41 13  1  0
 42 41  1  0
 43 41  1  0
 45 46  1  0
 47 46  1  0
 48 49  2  0
 50 47  1  0
 50 48  1  0
 51 50  1  0
 52 48  1  0
 53 52  1  0
 53 54  1  0
 53 55  1  0
 54 68  2  0
 55 60  1  0
 56 57  1  0
 56 55  2  0
 57 58  2  0
 58 60  1  0
 58 59  1  0
 60 61  1  0
 61 62  1  0
 62 63  1  0
 63 64  1  0
 65 66  1  0
 65 63  2  0
 67 61  2  0
 67 65  1  0
 68 67  1  0
 69 68  1  0
 69 70  1  0
 71 70  2  0
 72 71  1  0
 73 72  1  0
 74 75  1  0
 74 72  2  0
 75 69  2  0
M  ISO  4   5 101  10 101  48 100  50 100
M  END
>  <TORSDO>  (6) 
F 16

>  <SCORE>  (6) 
-5.794

>  <name>  (6) 
5

>  <ligand_id>  (6) 
5

>  <original_smiles>  (6) 
[H]OC1([H])C([H])([H])N(C(=O)C([H])(N([H])C(=O)C2([H])C([H])(OC([H])([H])C([H])([H])N([H])C(=O)C([H])([H])C3([H])N=C(c4c([H])c([H])c(Cl)c([H])c4[H])c4c(sc(C([H])([H])[H])c4C([H])([H])[H])-n4c(C([H])([H])[H])nnc43)OC([H])([H])C([H])([H])OC([H])([H])C2([H])[H])C(C([H])([H])[H])(C([H])([H])[H])C([H])([H])[H])C([H])(C(=O)N([H])C([H])([H])c2c([H])c([H])c(C3=C(C([H])([H])[H])N([H])C([H])([H])S3)c([H])c2[H])C1([H])[H]

>  <smiles>  (6) 
[H]OC1([H])C([H])([H])N(C(=O)C([H])(N([H])C(=O)C2([H])C([H])(OC([H])([H])C([H])([H])N([H])C(=O)C([H])([H])C3([H])N=C(c4c([H])c([H])c(Cl)c([H])c4[H])c4c(sc(C([H])([H])[H])c4C([H])([H])[H])-n4c(C([H])([H])[H])nnc43)OC([H])([H])C([H])([H])OC([H])([H])C2([H])[H])C(C([H])([H])[H])(C([H])([H])[H])C([H])([H])[H])C([H])(C(=O)N([H])C([H])([H])c2c([H])c([H])c(C3=C(C([H])([H])[H])N([H])C([H])([H])S3)c([H])c2[H])C1([H])[H]

$$$$
6:0:0
     RDKit          3D

 78 85  0  0  1  0  0  0  0  0999 V2000
   25.7890  -24.6160  -15.4030 N   0  0  0  0  0  0  0  0  0  0  0  0
   26.7140  -25.1090  -14.5770 C   0  0  0  0  0  0  0  0  0  0  0  0
   27.2260  -24.4610  -13.6620 O   0  0  0  0  0  0  0  0  0  0  0  0
   25.8790  -27.2730  -15.2250 C   0  0  0  0  0  0  0  0  0  0  0  0
   24.1240  -28.3590  -16.3050 C   0  0  0  0  0  3  0  0  0  0  0  0
   23.2020  -30.2690  -17.5370 C   0  0  0  0  0  3  0  0  0  0  0  0
   24.4980  -31.0150  -17.7180 C   0  0  0  0  0  1  0  0  0  0  0  0
   22.5530  -28.2360  -14.2820 C   0  0  0  0  0  1  0  0  0  0  0  0
   24.8620  -27.5170  -14.3670 N   0  0  0  0  0  0  0  0  0  0  0  0
   23.8210  -28.0650  -15.0220 N   0  0  0  0  0  0  0  0  0  0  0  0
   26.9270  -26.4160  -14.7870 N   0  0  0  0  0  0  0  0  0  0  0  0
   23.1570  -28.9770  -17.1000 N   0  0  0  0  0  0  0  0  0  0  0  0
   22.0840  -30.9940  -17.8080 N   0  0  0  0  0  0  0  0  0  0  0  0
   25.6940  -27.8580  -16.8900 S   0  0  0  0  0  0  0  0  0  0  0  0
   25.5540  -25.1510  -16.2200 H   0  0  0  0  0  0  0  0  0  0  0  0
   27.6280  -26.8400  -14.1970 H   0  0  0  0  0  0  0  0  0  0  0  0
   22.2960  -28.4570  -17.0800 H   0  0  0  0  0  0  0  0  0  0  0  0
   22.1870  -31.9400  -18.1590 H   0  0  0  0  0  0  0  0  0  0  0  0
   20.1790  -31.4110  -16.5330 C   0  0  0  0  0  0  0  0  0  0  0  0
   19.6400  -30.9260  -15.5390 O   0  0  0  0  0  0  0  0  0  0  0  0
   20.7850  -30.6160  -17.4290 N   0  0  0  0  0  0  0  0  0  0  0  0
   20.6850  -29.6130  -17.4490 H   0  0  0  0  0  0  0  0  0  0  0  0
   20.2240  -32.9410  -16.7170 C   0  0  0  0  0  2  0  0  0  0  0  0
   20.8450  -33.6780  -15.5050 C   0  0  0  0  0  3  0  0  0  0  0  0
   22.2020  -33.1660  -15.2830 N   0  0  0  0  0  0  0  0  0  0  0  0
   20.8810  -35.1900  -15.6590 C   0  0  0  0  0  0  0  0  0  0  0  0
   20.5720  -35.8910  -16.7570 N   0  0  0  0  0  0  0  0  0  0  0  0
   20.8320  -37.2090  -16.4430 N   0  0  0  0  0  0  0  0  0  0  0  0
   21.2860  -37.2000  -15.1870 C   0  0  0  0  0  0  0  0  0  0  0  0
   21.7430  -38.4310  -14.4720 C   0  0  0  0  0  1  0  0  0  0  0  0
   21.3120  -35.9620  -14.6430 N   0  0  0  0  0  0  0  0  0  0  0  0
   21.6750  -35.5280  -13.3530 C   0  0  0  0  0  0  0  0  0  0  0  0
   21.2960  -36.3430  -11.8720 S   0  0  0  0  0  0  0  0  0  0  0  0
   21.9960  -35.0540  -10.9320 C   0  0  0  0  0  0  0  0  0  0  0  0
   21.9890  -35.1380   -9.4390 C   0  0  0  0  0  1  0  0  0  0  0  0
   22.4790  -34.0370  -11.7240 C   0  0  0  0  0  0  0  0  0  0  0  0
   23.0710  -32.7730  -11.1540 C   0  0  0  0  0  1  0  0  0  0  0  0
   22.3320  -34.3370  -13.1250 C   0  0  0  0  0  0  0  0  0  0  0  0
   22.8510  -33.4510  -14.2130 C   0  0  0  0  0  0  0  0  0  0  0  0
   24.2080  -32.8810  -14.0610 C   0  0  0  0  0  0  0  0  0  0  0  0
   25.2800  -33.6880  -13.6210 C   0  0  0  0  0  3  0  0  0  0  0  0
   26.5610  -33.1300  -13.4500 C   0  0  0  0  0  3  0  0  0  0  0  0
   26.7800  -31.7700  -13.7280 C   0  0  0  0  0  0  0  0  0  0  0  0
   28.3420  -31.0680  -13.5310 Cl  0  0  0  0  0  0  0  0  0  0  0  0
   25.7180  -30.9740  -14.1710 C   0  0  0  0  0  3  0  0  0  0  0  0
   24.4320  -31.5200  -14.3340 C   0  0  0  0  0  3  0  0  0  0  0  0
   24.8790  -23.5070  -15.1690 C   0  0  0  0  0  3  0  0  0  0  0  0
   21.7020  -23.7000  -12.8440 C   0  0  0  0  0  3  0  0  0  0  0  0
   21.2560  -22.4430  -12.0810 C   0  0  0  0  0  2  0  0  0  0  0  0
   22.5370  -21.6720  -11.8450 C   0  0  0  0  0  3  0  0  0  0  0  0
   23.4290  -22.0210  -13.0360 C   0  0  0  0  0  2  0  0  0  0  0  0
   22.9320  -23.2970  -13.5610 N   0  0  0  0  0  0  0  0  0  0  0  0
   23.5820  -24.0450  -14.4830 C   0  0  0  0  0  0  0  0  0  0  0  0
   23.1800  -25.1660  -14.7940 O   0  0  0  0  0  0  0  0  0  0  0  0
   19.7480  -25.1290  -13.1640 N   0  0  0  0  0  0  0  0  0  0  0  0
   20.5410  -24.2050  -13.7170 C   0  0  0  0  0  0  0  0  0  0  0  0
   20.3340  -23.7220  -14.8330 O   0  0  0  0  0  0  0  0  0  0  0  0
   19.9930  -25.4770  -12.2470 H   0  0  0  0  0  0  0  0  0  0  0  0
   18.4860  -25.5990  -13.7240 C   0  0  0  0  0  2  0  0  0  0  0  0
   15.0960  -23.1040  -12.6110 C   0  0  0  0  0  0  0  0  0  0  0  0
   16.1330  -23.3450  -11.6870 C   0  0  0  0  0  3  0  0  0  0  0  0
   17.2300  -24.1490  -12.0440 C   0  0  0  0  0  3  0  0  0  0  0  0
   15.1720  -23.6720  -13.9010 C   0  0  0  0  0  3  0  0  0  0  0  0
   16.2710  -24.4750  -14.2580 C   0  0  0  0  0  3  0  0  0  0  0  0
   17.3060  -24.7190  -13.3320 C   0  0  0  0  0  0  0  0  0  0  0  0
   11.9800  -23.5870  -13.2950 C   0  0  0  0  0  1  0  0  0  0  0  0
   12.6200  -22.4840  -12.4770 C   0  0  0  0  0  0  0  0  0  0  0  0
   11.7900  -21.5630  -11.8700 N   0  0  0  0  0  0  0  0  0  0  0  0
   12.4100  -20.6600  -10.9080 C   0  0  0  0  0  2  0  0  0  0  0  0
   14.1830  -20.8960  -11.2040 S   0  0  0  0  0  0  0  0  0  0  0  0
   13.9190  -22.3270  -12.1870 C   0  0  0  0  0  0  0  0  0  0  0  0
   10.7770  -21.6240  -11.9030 H   0  0  0  0  0  0  0  0  0  0  0  0
   23.1700  -22.1160  -10.6570 O   0  0  0  0  0  0  0  0  0  0  0  0
   23.3260  -23.0530  -10.7320 H   0  0  0  0  0  0  0  0  0  0  0  0
   24.6050  -22.8670  -16.5750 C   0  0  1  0  0  0  0  0  0  0  0  0
   25.9270  -22.2660  -17.1090 C   0  0  0  0  0  1  0  0  0  0  0  0
   24.0790  -23.8800  -17.6250 C   0  0  0  0  0  1  0  0  0  0  0  0
   23.5930  -21.7070  -16.4660 C   0  0  0  0  0  1  0  0  0  0  0  0
  1 47  1  0
  1  2  1  0
  2  3  2  0
  4 11  1  0
  4  9  2  0
  5 12  1  0
  5 10  1  0
  6  7  1  0
  6 12  1  0
 10  9  1  0
 10  8  1  0
 11  2  1  0
 11 16  1  0
 12 17  1  0
 13  6  1  0
 13 21  1  0
 14  5  1  0
 14  4  1  0
 15  1  1  0
 18 13  1  0
 19 20  2  0
 21 19  1  0
 22 21  1  0
 23 19  1  0
 24 23  1  0
 24 25  1  0
 25 39  2  0
 26 24  1  0
 26 31  1  0
 27 28  1  0
 27 26  2  0
 28 29  2  0
 29 31  1  0
 29 30  1  0
 31 32  1  0
 32 38  2  0
 32 33  1  0
 33 34  1  0
 34 35  1  0
 36 37  1  0
 36 34  2  0
 38 36  1  0
 39 40  1  0
 39 38  1  0
 40 41  1  0
 41 42  2  0
 43 44  1  0
 43 42  1  0
 45 43  2  0
 46 45  1  0
 46 40  2  0
 47 53  1  0
 48 56  1  0
 48 49  1  0
 49 50  1  0
 50 73  1  0
 51 50  1  0
 52 51  1  0
 52 48  1  0
 53 52  1  0
 54 53  2  0
 55 58  1  0
 56 55  1  0
 57 56  2  0
 59 65  1  0
 59 55  1  0
 60 71  1  0
 60 61  1  0
 62 61  2  0
 63 60  2  0
 64 63  1  0
 64 65  2  0
 65 62  1  0
 66 67  1  0
 67 71  2  0
 67 68  1  0
 68 69  1  0
 70 69  1  0
 71 70  1  0
 72 68  1  0
 74 73  1  0
 75 78  1  1
 75 47  1  0
 76 75  1  0
 77 75  1  0
M  ISO  4   2 101  11 101  19 100  21 100
M  END
>  <TORSDO>  (7) 
F 12

>  <SCORE>  (7) 
-7.453

>  <name>  (7) 
6

>  <ligand_id>  (7) 
6

>  <original_smiles>  (7) 
[H]OC1([H])C([H])([H])N(C(=O)C([H])(N([H])C(=O)N([H])c2n[n+](C([H])([H])[H])c(N([H])C(=[N+]([H])N([H])C(=O)C([H])([H])C3([H])N=C(c4c([H])c([H])c(Cl)c([H])c4[H])c4c(sc(C([H])([H])[H])c4C([H])([H])[H])-n4c(C([H])([H])[H])nnc43)C([H])([H])[H])s2)C(C([H])([H])[H])(C([H])([H])[H])C([H])([H])[H])C([H])(C(=O)N([H])C([H])([H])c2c([H])c([H])c(C3=C(C([H])([H])[H])N([H])C([H])([H])S3)c([H])c2[H])C1([H])[H]

>  <smiles>  (7) 
[H]OC1([H])C([H])([H])N(C(=O)C([H])(N([H])C(=O)N([H])c2n[n+](C([H])([H])[H])c(N([H])C(=[N+]([H])N([H])C(=O)C([H])([H])C3([H])N=C(c4c([H])c([H])c(Cl)c([H])c4[H])c4c(sc(C([H])([H])[H])c4C([H])([H])[H])-n4c(C([H])([H])[H])nnc43)C([H])([H])[H])s2)C(C([H])([H])[H])(C([H])([H])[H])C([H])([H])[H])C([H])(C(=O)N([H])C([H])([H])c2c([H])c([H])c(C3=C(C([H])([H])[H])N([H])C([H])([H])S3)c([H])c2[H])C1([H])[H]

$$$$
7:0:0
     RDKit          3D

 78 84  0  0  1  0  0  0  0  0999 V2000
   25.4990  -27.2310  -14.8390 N   0  0  0  0  0  4  0  0  0  0  0  0
   24.8140  -26.4770  -14.8250 H   0  0  0  0  0  0  0  0  0  0  0  0
   25.3700  -27.6960  -13.9510 H   0  0  0  0  0  0  0  0  0  0  0  0
   25.9150  -24.7280  -15.5640 N   0  0  0  0  0  0  0  0  0  0  0  0
   26.7140  -25.2640  -14.6380 C   0  0  0  0  0  0  0  0  0  0  0  0
   27.1700  -24.6180  -13.6900 O   0  0  0  0  0  0  0  0  0  0  0  0
   26.8860  -26.5840  -14.8080 N   0  0  0  0  0  0  0  0  0  0  0  0
   25.8890  -25.1560  -16.4780 H   0  0  0  0  0  0  0  0  0  0  0  0
   27.5340  -27.0520  -14.1920 H   0  0  0  0  0  0  0  0  0  0  0  0
   24.9570  -23.6400  -15.3650 C   0  0  0  0  0  3  0  0  0  0  0  0
   21.8890  -24.0010  -12.9130 C   0  0  0  0  0  3  0  0  0  0  0  0
   21.4590  -22.8050  -12.0490 C   0  0  0  0  0  2  0  0  0  0  0  0
   22.7360  -22.0220  -11.8300 C   0  0  0  0  0  3  0  0  0  0  0  0
   23.5760  -22.2800  -13.0810 C   0  0  0  0  0  2  0  0  0  0  0  0
   23.0740  -23.5300  -13.6610 N   0  0  0  0  0  0  0  0  0  0  0  0
   23.7060  -24.2270  -14.6360 C   0  0  0  0  0  0  0  0  0  0  0  0
   23.3770  -25.3870  -14.9230 O   0  0  0  0  0  0  0  0  0  0  0  0
   19.8980  -25.3800  -13.2160 N   0  0  0  0  0  0  0  0  0  0  0  0
   20.6960  -24.4610  -13.7700 C   0  0  0  0  0  0  0  0  0  0  0  0
   20.4790  -23.9570  -14.8730 O   0  0  0  0  0  0  0  0  0  0  0  0
   20.1580  -25.7520  -12.3130 H   0  0  0  0  0  0  0  0  0  0  0  0
   18.6140  -25.8120  -13.7550 C   0  0  0  0  0  2  0  0  0  0  0  0
   15.3280  -23.1790  -12.6510 C   0  0  0  0  0  0  0  0  0  0  0  0
   16.3770  -23.4230  -11.7410 C   0  0  0  0  0  3  0  0  0  0  0  0
   17.4400  -24.2700  -12.0950 C   0  0  0  0  0  3  0  0  0  0  0  0
   15.3570  -23.7890  -13.9230 C   0  0  0  0  0  3  0  0  0  0  0  0
   16.4230  -24.6370  -14.2770 C   0  0  0  0  0  3  0  0  0  0  0  0
   17.4710  -24.8830  -13.3670 C   0  0  0  0  0  0  0  0  0  0  0  0
   12.1790  -23.6060  -13.2180 C   0  0  0  0  0  1  0  0  0  0  0  0
   12.8740  -22.4850  -12.4700 C   0  0  0  0  0  0  0  0  0  0  0  0
   12.0860  -21.5160  -11.8830 N   0  0  0  0  0  0  0  0  0  0  0  0
   12.7600  -20.5850  -10.9850 C   0  0  0  0  0  2  0  0  0  0  0  0
   14.5160  -20.8840  -11.3210 S   0  0  0  0  0  0  0  0  0  0  0  0
   14.1850  -22.3510  -12.2280 C   0  0  0  0  0  0  0  0  0  0  0  0
   11.0710  -21.5480  -11.8860 H   0  0  0  0  0  0  0  0  0  0  0  0
   23.4310  -22.5170  -10.6960 O   0  0  0  0  0  0  0  0  0  0  0  0
   23.6050  -23.4430  -10.8250 H   0  0  0  0  0  0  0  0  0  0  0  0
   24.6490  -23.0500  -16.7880 C   0  0  1  0  0  0  0  0  0  0  0  0
   25.9390  -22.3950  -17.3380 C   0  0  0  0  0  1  0  0  0  0  0  0
   24.1810  -24.1110  -17.8140 C   0  0  0  0  0  1  0  0  0  0  0  0
   23.5720  -21.9500  -16.7220 C   0  0  0  0  0  1  0  0  0  0  0  0
   25.2630  -28.1470  -15.9580 O   0  0  0  0  0  0  0  0  0  0  0  0
   24.1320  -27.8120  -16.6710 C   0  0  0  0  0  2  0  0  0  0  0  0
   23.3430  -28.7050  -17.1740 N   0  0  0  0  0  2  0  0  0  0  0  0
   21.2670  -28.3770  -18.4420 C   0  0  0  0  0  3  0  0  0  0  0  0
   20.3550  -27.3160  -18.9780 C   0  0  0  0  0  1  0  0  0  0  0  0
   22.3720  -27.9360  -17.7840 N   0  0  0  0  0  0  0  0  0  0  0  0
   20.8690  -29.6520  -18.6810 N   0  0  0  0  0  0  0  0  0  0  0  0
   22.4850  -26.9340  -17.7190 H   0  0  0  0  0  0  0  0  0  0  0  0
   19.9830  -29.8040  -19.1440 H   0  0  0  0  0  0  0  0  0  0  0  0
   20.8890  -31.5810  -17.4190 C   0  0  0  0  0  0  0  0  0  0  0  0
   20.2110  -31.1050  -16.5040 O   0  0  0  0  0  0  0  0  0  0  0  0
   21.5450  -30.8060  -18.2970 N   0  0  0  0  0  0  0  0  0  0  0  0
   22.0590  -31.1590  -19.0930 H   0  0  0  0  0  0  0  0  0  0  0  0
   21.0710  -33.1030  -17.5340 C   0  0  0  0  0  2  0  0  0  0  0  0
   21.5030  -33.7590  -16.1990 C   0  0  0  0  0  3  0  0  0  0  0  0
   22.8350  -33.2680  -15.8490 N   0  0  0  0  0  0  0  0  0  0  0  0
   21.5050  -35.2790  -16.2170 C   0  0  0  0  0  0  0  0  0  0  0  0
   21.3100  -36.0690  -17.2800 N   0  0  0  0  0  0  0  0  0  0  0  0
   21.4880  -37.3620  -16.8240 N   0  0  0  0  0  0  0  0  0  0  0  0
   21.7860  -37.2520  -15.5250 C   0  0  0  0  0  0  0  0  0  0  0  0
   22.1180  -38.4250  -14.6540 C   0  0  0  0  0  1  0  0  0  0  0  0
   21.7820  -35.9720  -15.0940 N   0  0  0  0  0  0  0  0  0  0  0  0
   21.9980  -35.4340  -13.8100 C   0  0  0  0  0  0  0  0  0  0  0  0
   21.4060  -36.1100  -12.3270 S   0  0  0  0  0  0  0  0  0  0  0  0
   22.0260  -34.7630  -11.4140 C   0  0  0  0  0  0  0  0  0  0  0  0
   21.8320  -34.7270   -9.9320 C   0  0  0  0  0  1  0  0  0  0  0  0
   22.6400  -33.8300  -12.2200 C   0  0  0  0  0  0  0  0  0  0  0  0
   23.1980  -32.5370  -11.6790 C   0  0  0  0  0  1  0  0  0  0  0  0
   22.6570  -34.2410  -13.6010 C   0  0  0  0  0  0  0  0  0  0  0  0
   23.3340  -33.4600  -14.6860 C   0  0  0  0  0  0  0  0  0  0  0  0
   24.6750  -32.8960  -14.4230 C   0  0  0  0  0  0  0  0  0  0  0  0
   25.6480  -33.6770  -13.7620 C   0  0  0  0  0  3  0  0  0  0  0  0
   26.9180  -33.1390  -13.4810 C   0  0  0  0  0  3  0  0  0  0  0  0
   27.2220  -31.8240  -13.8680 C   0  0  0  0  0  0  0  0  0  0  0  0
   28.7670  -31.1430  -13.5280 Cl  0  0  0  0  0  0  0  0  0  0  0  0
   26.2650  -31.0550  -14.5430 C   0  0  0  0  0  3  0  0  0  0  0  0
   24.9870  -31.5780  -14.8220 C   0  0  0  0  0  3  0  0  0  0  0  0
  1  2  1  0
  1  7  1  0
  1  3  1  0
  4 10  1  0
  4  5  1  0
  5  6  2  0
  7  5  1  0
  7  9  1  0
  8  4  1  0
 10 16  1  0
 11 19  1  0
 11 12  1  0
 12 13  1  0
 13 36  1  0
 14 13  1  0
 15 14  1  0
 15 11  1  0
 16 15  1  0
 17 16  2  0
 18 21  1  0
 19 18  1  0
 20 19  2  0
 22 28  1  0
 22 18  1  0
 23 34  1  0
 23 24  1  0
 25 24  2  0
 26 23  2  0
 27 26  1  0
 27 28  2  0
 28 25  1  0
 29 30  1  0
 30 34  2  0
 30 31  1  0
 31 32  1  0
 33 32  1  0
 34 33  1  0
 35 31  1  0
 37 36  1  0
 38 41  1  1
 38 10  1  0
 39 38  1  0
 40 38  1  0
 42  1  1  0
 43 42  1  0
 44 43  1  0
 45 46  1  0
 45 47  1  0
 47 49  1  0
 47 44  1  0
 48 45  1  0
 48 53  1  0
 50 48  1  0
 51 52  2  0
 53 51  1  0
 54 53  1  0
 55 51  1  0
 56 55  1  0
 56 57  1  0
 57 71  2  0
 58 56  1  0
 58 63  1  0
 59 60  1  0
 59 58  2  0
 60 61  2  0
 61 63  1  0
 61 62  1  0
 63 64  1  0
 64 70  2  0
 64 65  1  0
 65 66  1  0
 66 67  1  0
 68 69  1  0
 68 66  2  0
 70 68  1  0
 71 72  1  0
 71 70  1  0
 72 73  1  0
 73 74  2  0
 75 76  1  0
 75 74  1  0
 77 75  2  0
 78 77  1  0
 78 72  2  0
M  ISO  4   5 101   7 101  51 100  53 100
M  END
>  <TORSDO>  (8) 
F 16

>  <SCORE>  (8) 
-13.943

>  <name>  (8) 
7

>  <ligand_id>  (8) 
7

>  <original_smiles>  (8) 
[H]OC1([H])C([H])([H])N(C(=O)C([H])(N([H])C(=O)N([H])[N+]([H])([H])OC([H])=NN([H])C(=[N+]([H])N([H])C(=O)C([H])([H])C2([H])N=C(c3c([H])c([H])c(Cl)c([H])c3[H])c3c(sc(C([H])([H])[H])c3C([H])([H])[H])-n3c(C([H])([H])[H])nnc32)C([H])([H])[H])C(C([H])([H])[H])(C([H])([H])[H])C([H])([H])[H])C([H])(C(=O)N([H])C([H])([H])c2c([H])c([H])c(C3=C(C([H])([H])[H])N([H])C([H])([H])S3)c([H])c2[H])C1([H])[H]

>  <smiles>  (8) 
[H]OC1([H])C([H])([H])N(C(=O)C([H])(N([H])C(=O)N([H])[N+]([H])([H])OC([H])=NN([H])C(=[N+]([H])N([H])C(=O)C([H])([H])C2([H])N=C(c3c([H])c([H])c(Cl)c([H])c3[H])c3c(sc(C([H])([H])[H])c3C([H])([H])[H])-n3c(C([H])([H])[H])nnc32)C([H])([H])[H])C(C([H])([H])[H])(C([H])([H])[H])C([H])([H])[H])C([H])(C(=O)N([H])C([H])([H])c2c([H])c([H])c(C3=C(C([H])([H])[H])N([H])C([H])([H])S3)c([H])c2[H])C1([H])[H]

$$$$
8:0:0
     RDKit          3D

 74 81  0  0  1  0  0  0  0  0999 V2000
   25.9730  -24.5260  -16.3330 N   0  0  0  0  0  0  0  0  0  0  0  0
   26.6970  -25.3530  -15.5810 C   0  0  0  0  0  0  0  0  0  0  0  0
   27.3370  -25.0090  -14.5860 O   0  0  0  0  0  0  0  0  0  0  0  0
   26.3570  -26.6210  -15.8310 N   0  0  0  0  0  0  0  0  0  0  0  0
   25.5510  -24.9350  -17.1530 H   0  0  0  0  0  0  0  0  0  0  0  0
   25.8830  -26.8080  -16.7020 H   0  0  0  0  0  0  0  0  0  0  0  0
   26.1850  -27.6430  -14.7960 C   0  0  0  0  0  2  0  0  0  0  0  0
   25.1770  -28.7320  -15.2430 C   0  0  0  0  0  3  0  0  0  0  0  0
   23.6970  -28.3140  -15.4110 C   0  0  0  0  0  3  0  0  0  0  0  0
   23.0280  -30.2330  -17.0530 C   0  0  0  0  0  3  0  0  0  0  0  0
   21.5680  -29.6010  -15.5700 C   0  0  0  0  0  3  0  0  0  0  0  0
   21.9370  -31.0880  -17.0920 C   0  0  0  0  0  0  0  0  0  0  0  0
   20.9900  -30.6380  -16.1640 N   0  0  0  0  0  0  0  0  0  0  0  0
   22.8170  -29.3460  -15.9830 N   0  0  0  0  0  0  0  0  0  0  0  0
   20.9060  -33.2730  -17.6110 C   0  0  0  0  0  0  0  0  0  0  0  0
   19.7860  -32.8990  -17.3220 O   0  0  0  0  0  0  0  0  0  0  0  0
   21.8590  -32.3310  -17.8280 N   0  0  0  0  0  0  0  0  0  0  0  0
   22.7240  -32.6600  -18.2350 H   0  0  0  0  0  0  0  0  0  0  0  0
   21.2490  -34.7820  -17.4710 C   0  0  0  0  0  2  0  0  0  0  0  0
   21.5420  -35.0420  -15.9630 C   0  0  0  0  0  3  0  0  0  0  0  0
   22.8300  -34.4180  -15.7010 N   0  0  0  0  0  0  0  0  0  0  0  0
   21.5780  -36.4710  -15.4450 C   0  0  0  0  0  0  0  0  0  0  0  0
   21.5000  -37.6000  -16.1590 N   0  0  0  0  0  0  0  0  0  0  0  0
   21.6920  -38.6280  -15.2530 N   0  0  0  0  0  0  0  0  0  0  0  0
   21.8750  -38.0430  -14.0640 C   0  0  0  0  0  0  0  0  0  0  0  0
   22.1900  -38.8010  -12.8090 C   0  0  0  0  0  1  0  0  0  0  0  0
   21.7800  -36.6970  -14.1260 N   0  0  0  0  0  0  0  0  0  0  0  0
   21.8640  -35.7240  -13.1030 C   0  0  0  0  0  0  0  0  0  0  0  0
   21.1830  -35.8670  -11.5140 S   0  0  0  0  0  0  0  0  0  0  0  0
   21.6610  -34.2380  -11.1130 C   0  0  0  0  0  0  0  0  0  0  0  0
   21.3370  -33.6930   -9.7580 C   0  0  0  0  0  1  0  0  0  0  0  0
   22.2950  -33.6110  -12.1630 C   0  0  0  0  0  0  0  0  0  0  0  0
   22.7330  -32.1680  -12.1150 C   0  0  0  0  0  1  0  0  0  0  0  0
   22.4570  -34.4940  -13.2890 C   0  0  0  0  0  0  0  0  0  0  0  0
   23.2110  -34.1220  -14.5220 C   0  0  0  0  0  0  0  0  0  0  0  0
   24.4970  -33.4090  -14.4030 C   0  0  0  0  0  0  0  0  0  0  0  0
   25.3760  -33.7020  -13.3430 C   0  0  0  0  0  3  0  0  0  0  0  0
   26.5880  -32.9940  -13.2200 C   0  0  0  0  0  3  0  0  0  0  0  0
   26.9260  -32.0030  -14.1600 C   0  0  0  0  0  0  0  0  0  0  0  0
   28.3880  -31.1110  -14.0010 Cl  0  0  0  0  0  0  0  0  0  0  0  0
   26.0800  -31.7540  -15.2460 C   0  0  0  0  0  3  0  0  0  0  0  0
   24.8680  -32.4510  -15.3640 C   0  0  0  0  0  3  0  0  0  0  0  0
   25.1030  -23.5090  -15.7230 C   0  0  0  0  0  3  0  0  0  0  0  0
   22.2840  -24.3630  -13.0950 C   0  0  0  0  0  3  0  0  0  0  0  0
   21.7740  -23.2750  -12.1380 C   0  0  0  0  0  2  0  0  0  0  0  0
   22.9530  -22.3400  -11.9680 C   0  0  0  0  0  3  0  0  0  0  0  0
   23.7350  -22.4430  -13.2780 C   0  0  0  0  0  2  0  0  0  0  0  0
   23.3480  -23.7170  -13.8950 N   0  0  0  0  0  0  0  0  0  0  0  0
   23.9610  -24.2670  -14.9760 C   0  0  0  0  0  0  0  0  0  0  0  0
   23.6690  -25.3930  -15.3860 O   0  0  0  0  0  0  0  0  0  0  0  0
   20.3780  -25.8780  -13.2530 N   0  0  0  0  0  0  0  0  0  0  0  0
   21.1020  -24.9470  -13.8860 C   0  0  0  0  0  0  0  0  0  0  0  0
   20.8180  -24.5180  -15.0060 O   0  0  0  0  0  0  0  0  0  0  0  0
   20.6800  -26.1700  -12.3350 H   0  0  0  0  0  0  0  0  0  0  0  0
   19.1110  -26.4220  -13.7300 C   0  0  0  0  0  2  0  0  0  0  0  0
   15.7280  -23.7840  -12.9780 C   0  0  0  0  0  0  0  0  0  0  0  0
   16.7600  -23.9030  -12.0240 C   0  0  0  0  0  3  0  0  0  0  0  0
   17.8550  -24.7510  -12.2640 C   0  0  0  0  0  3  0  0  0  0  0  0
   15.8070  -24.5200  -14.1790 C   0  0  0  0  0  3  0  0  0  0  0  0
   16.9050  -25.3690  -14.4200 C   0  0  0  0  0  3  0  0  0  0  0  0
   17.9350  -25.4900  -13.4650 C   0  0  0  0  0  0  0  0  0  0  0  0
   12.6170  -24.3190  -13.6440 C   0  0  0  0  0  1  0  0  0  0  0  0
   13.2570  -23.1300  -12.9550 C   0  0  0  0  0  0  0  0  0  0  0  0
   12.4280  -22.1370  -12.4780 N   0  0  0  0  0  0  0  0  0  0  0  0
   13.0430  -21.1290  -11.6220 C   0  0  0  0  0  2  0  0  0  0  0  0
   14.8180  -21.4140  -11.8600 S   0  0  0  0  0  0  0  0  0  0  0  0
   14.5540  -22.9520  -12.6670 C   0  0  0  0  0  0  0  0  0  0  0  0
   11.4140  -22.1900  -12.5220 H   0  0  0  0  0  0  0  0  0  0  0  0
   23.7780  -22.7770  -10.9000 O   0  0  0  0  0  0  0  0  0  0  0  0
   24.0850  -23.6560  -11.0940 H   0  0  0  0  0  0  0  0  0  0  0  0
   24.5650  -22.5580  -16.8490 C   0  0  1  0  0  0  0  0  0  0  0  0
   25.7380  -21.6860  -17.3470 C   0  0  0  0  0  1  0  0  0  0  0  0
   23.9730  -23.3110  -18.0650 C   0  0  0  0  0  1  0  0  0  0  0  0
   23.4820  -21.5970  -16.3100 C   0  0  0  0  0  1  0  0  0  0  0  0
  1 43  1  0
  1  2  1  0
  2  3  2  0
  4  2  1  0
  4  7  1  0
  5  1  1  0
  6  4  1  0
  8  7  1  0
  9  8  2  0
 10 14  1  0
 12 10  2  0
 12 13  1  0
 13 11  2  0
 14 11  1  0
 14  9  1  0
 15 19  1  0
 15 16  2  0
 17 15  1  0
 17 12  1  0
 18 17  1  0
 20 19  1  0
 20 21  1  0
 20 22  1  0
 21 35  2  0
 22 27  1  0
 23 22  2  0
 23 24  1  0
 24 25  2  0
 25 26  1  0
 27 25  1  0
 27 28  1  0
 28 29  1  0
 29 30  1  0
 30 31  1  0
 32 33  1  0
 32 30  2  0
 34 28  2  0
 34 32  1  0
 35 36  1  0
 35 34  1  0
 36 37  1  0
 37 38  2  0
 39 40  1  0
 39 38  1  0
 41 39  2  0
 42 41  1  0
 42 36  2  0
 43 49  1  0
 44 52  1  0
 44 45  1  0
 45 46  1  0
 46 69  1  0
 47 46  1  0
 48 47  1  0
 48 44  1  0
 49 48  1  0
 50 49  2  0
 51 54  1  0
 52 51  1  0
 53 52  2  0
 55 61  1  0
 55 51  1  0
 56 67  1  0
 56 57  1  0
 58 57  2  0
 59 56  2  0
 60 59  1  0
 60 61  2  0
 61 58  1  0
 62 63  1  0
 63 67  2  0
 63 64  1  0
 64 65  1  0
 66 65  1  0
 67 66  1  0
 68 64  1  0
 70 69  1  0
 71 74  1  1
 71 43  1  0
 72 71  1  0
 73 71  1  0
M  ISO  4   2 101   4 101  15 100  17 100
M  END
>  <TORSDO>  (9) 
F 16

>  <SCORE>  (9) 
-10.066

>  <name>  (9) 
8

>  <ligand_id>  (9) 
8

>  <original_smiles>  (9) 
[H]OC1([H])C([H])([H])N(C(=O)C([H])(N([H])C(=O)N([H])C([H])([H])C([H])([H])C([H])([H])n2c([H])nc(N([H])C(=O)C([H])([H])C3([H])N=C(c4c([H])c([H])c(Cl)c([H])c4[H])c4c(sc(C([H])([H])[H])c4C([H])([H])[H])-n4c(C([H])([H])[H])nnc43)c2[H])C(C([H])([H])[H])(C([H])([H])[H])C([H])([H])[H])C([H])(C(=O)N([H])C([H])([H])c2c([H])c([H])c(C3=C(C([H])([H])[H])N([H])C([H])([H])S3)c([H])c2[H])C1([H])[H]

>  <smiles>  (9) 
[H]OC1([H])C([H])([H])N(C(=O)C([H])(N([H])C(=O)N([H])C([H])([H])C([H])([H])C([H])([H])n2c([H])nc(N([H])C(=O)C([H])([H])C3([H])N=C(c4c([H])c([H])c(Cl)c([H])c4[H])c4c(sc(C([H])([H])[H])c4C([H])([H])[H])-n4c(C([H])([H])[H])nnc43)c2[H])C(C([H])([H])[H])(C([H])([H])[H])C([H])([H])[H])C([H])(C(=O)N([H])C([H])([H])c2c([H])c([H])c(C3=C(C([H])([H])[H])N([H])C([H])([H])S3)c([H])c2[H])C1([H])[H]

$$$$
9:0:0
     RDKit          3D

 77 83  0  0  1  0  0  0  0  0999 V2000
   25.7830  -24.4780  -15.2690 N   0  0  0  0  0  0  0  0  0  0  0  0
   26.6100  -25.1240  -14.4680 C   0  0  0  0  0  0  0  0  0  0  0  0
   27.1890  -24.5890  -13.5010 O   0  0  0  0  0  0  0  0  0  0  0  0
   25.3360  -29.4370  -17.0130 C   0  0  0  0  0  0  0  0  0  0  0  0
   25.8190  -27.2660  -15.6370 C   0  0  0  0  0  0  0  0  0  0  0  0
   24.5310  -26.9090  -15.7000 N   0  0  0  0  0  4  0  0  0  0  0  0
   26.7620  -26.5120  -14.9340 N   0  0  0  0  0  0  0  0  0  0  0  0
   26.1510  -28.4180  -16.3010 N   0  0  0  0  0  0  0  0  0  0  0  0
   25.9440  -30.3810  -17.5190 O   0  0  0  0  0  0  0  0  0  0  0  0
   25.5280  -24.9850  -16.1030 H   0  0  0  0  0  0  0  0  0  0  0  0
   24.0910  -26.1940  -15.1010 H   0  0  0  0  0  0  0  0  0  0  0  0
   23.8850  -27.3620  -16.3490 H   0  0  0  0  0  0  0  0  0  0  0  0
   27.5680  -27.0380  -14.6350 H   0  0  0  0  0  0  0  0  0  0  0  0
   27.1480  -28.5640  -16.2930 H   0  0  0  0  0  0  0  0  0  0  0  0
   23.7480  -29.3760  -17.1550 C   0  0  0  0  0  0  0  0  0  0  0  0
   23.1370  -28.3160  -17.3250 O   0  0  0  0  0  0  0  0  0  0  0  0
   23.1510  -30.6370  -17.1930 O   0  0  0  0  0  0  0  0  0  0  0  0
   20.9380  -31.4520  -16.9140 C   0  0  0  0  0  0  0  0  0  0  0  0
   20.2320  -30.9950  -16.0100 O   0  0  0  0  0  0  0  0  0  0  0  0
   21.7590  -30.7400  -19.1020 C   0  0  0  0  0  1  0  0  0  0  0  0
   21.7820  -30.6670  -17.6400 N   0  0  0  0  0  0  0  0  0  0  0  0
   21.0040  -32.9840  -17.1140 C   0  0  0  0  0  2  0  0  0  0  0  0
   21.4520  -33.7190  -15.8230 C   0  0  0  0  0  3  0  0  0  0  0  0
   22.7960  -33.2610  -15.4770 N   0  0  0  0  0  0  0  0  0  0  0  0
   21.4390  -35.2380  -15.9060 C   0  0  0  0  0  0  0  0  0  0  0  0
   21.2170  -35.9810  -16.9960 N   0  0  0  0  0  0  0  0  0  0  0  0
   21.4090  -37.2930  -16.6030 N   0  0  0  0  0  0  0  0  0  0  0  0
   21.7400  -37.2410  -15.3090 C   0  0  0  0  0  0  0  0  0  0  0  0
   22.0990  -38.4520  -14.5010 C   0  0  0  0  0  1  0  0  0  0  0  0
   21.7440  -35.9810  -14.8210 N   0  0  0  0  0  0  0  0  0  0  0  0
   21.9940  -35.5020  -13.5180 C   0  0  0  0  0  0  0  0  0  0  0  0
   21.4440  -36.2460  -12.0520 S   0  0  0  0  0  0  0  0  0  0  0  0
   22.0860  -34.9400  -11.0960 C   0  0  0  0  0  0  0  0  0  0  0  0
   21.9290  -34.9700   -9.6080 C   0  0  0  0  0  1  0  0  0  0  0  0
   22.6800  -33.9700  -11.8750 C   0  0  0  0  0  0  0  0  0  0  0  0
   23.2520  -32.7020  -11.2950 C   0  0  0  0  0  1  0  0  0  0  0  0
   22.6610  -34.3220  -13.2710 C   0  0  0  0  0  0  0  0  0  0  0  0
   23.3140  -33.4990  -14.3350 C   0  0  0  0  0  0  0  0  0  0  0  0
   24.6550  -32.9400  -14.0750 C   0  0  0  0  0  0  0  0  0  0  0  0
   25.6880  -33.7750  -13.5990 C   0  0  0  0  0  3  0  0  0  0  0  0
   26.9610  -33.2390  -13.3260 C   0  0  0  0  0  3  0  0  0  0  0  0
   27.2000  -31.8670  -13.5210 C   0  0  0  0  0  0  0  0  0  0  0  0
   28.7540  -31.1960  -13.2000 Cl  0  0  0  0  0  0  0  0  0  0  0  0
   26.1620  -31.0320  -13.9620 C   0  0  0  0  0  3  0  0  0  0  0  0
   24.8950  -31.5640  -14.2590 C   0  0  0  0  0  3  0  0  0  0  0  0
   24.8770  -23.3770  -15.0280 C   0  0  0  0  0  3  0  0  0  0  0  0
   21.6580  -23.6700  -12.7770 C   0  0  0  0  0  3  0  0  0  0  0  0
   21.1400  -22.4360  -12.0230 C   0  0  0  0  0  2  0  0  0  0  0  0
   22.3820  -21.6060  -11.7670 C   0  0  0  0  0  3  0  0  0  0  0  0
   23.3140  -21.9120  -12.9380 C   0  0  0  0  0  2  0  0  0  0  0  0
   22.8840  -23.2090  -13.4630 N   0  0  0  0  0  0  0  0  0  0  0  0
   23.5870  -23.9450  -14.3490 C   0  0  0  0  0  0  0  0  0  0  0  0
   23.2440  -25.1000  -14.6040 O   0  0  0  0  0  0  0  0  0  0  0  0
   19.7640  -25.1690  -13.1470 N   0  0  0  0  0  0  0  0  0  0  0  0
   20.5440  -24.2250  -13.6850 C   0  0  0  0  0  0  0  0  0  0  0  0
   20.3640  -23.7680  -14.8160 O   0  0  0  0  0  0  0  0  0  0  0  0
   19.9940  -25.5030  -12.2210 H   0  0  0  0  0  0  0  0  0  0  0  0
   18.5390  -25.6880  -13.7440 C   0  0  0  0  0  2  0  0  0  0  0  0
   15.0290  -23.3180  -12.7350 C   0  0  0  0  0  0  0  0  0  0  0  0
   16.0380  -23.5340  -11.7750 C   0  0  0  0  0  3  0  0  0  0  0  0
   17.1730  -24.2980  -12.0980 C   0  0  0  0  0  3  0  0  0  0  0  0
   15.1690  -23.8710  -14.0260 C   0  0  0  0  0  3  0  0  0  0  0  0
   16.3080  -24.6340  -14.3490 C   0  0  0  0  0  3  0  0  0  0  0  0
   17.3150  -24.8520  -13.3880 C   0  0  0  0  0  0  0  0  0  0  0  0
   11.9640  -23.8620  -13.5790 C   0  0  0  0  0  1  0  0  0  0  0  0
   12.5340  -22.7650  -12.7040 C   0  0  0  0  0  0  0  0  0  0  0  0
   11.6510  -21.8830  -12.1140 N   0  0  0  0  0  0  0  0  0  0  0  0
   12.2010  -20.9880  -11.1030 C   0  0  0  0  0  2  0  0  0  0  0  0
   13.9920  -21.1710  -11.3180 S   0  0  0  0  0  0  0  0  0  0  0  0
   13.8140  -22.5830  -12.3490 C   0  0  0  0  0  0  0  0  0  0  0  0
   10.6430  -21.9660  -12.2010 H   0  0  0  0  0  0  0  0  0  0  0  0
   23.0090  -22.0210  -10.5640 O   0  0  0  0  0  0  0  0  0  0  0  0
   23.2210  -22.9470  -10.6370 H   0  0  0  0  0  0  0  0  0  0  0  0
   24.6300  -22.7740  -16.4600 C   0  0  1  0  0  0  0  0  0  0  0  0
   25.9450  -22.1270  -16.9610 C   0  0  0  0  0  1  0  0  0  0  0  0
   24.1980  -23.8300  -17.5140 C   0  0  0  0  0  1  0  0  0  0  0  0
   23.5600  -21.6680  -16.4280 C   0  0  0  0  0  1  0  0  0  0  0  0
  1 46  1  0
  1  2  1  0
  2  3  2  0
  4  8  1  0
  5  7  1  0
  6  5  2  0
  6 11  1  0
  7 13  1  0
  7  2  1  0
  8 14  1  0
  8  5  1  0
  9  4  2  0
 10  1  1  0
 12  6  1  0
 15  4  1  0
 16 15  2  0
 17 15  1  0
 18 19  2  0
 20 21  1  0
 21 17  1  0
 21 18  1  0
 22 18  1  0
 23 22  1  0
 23 24  1  0
 24 38  2  0
 25 23  1  0
 25 30  1  0
 26 27  1  0
 26 25  2  0
 27 28  2  0
 28 30  1  0
 28 29  1  0
 30 31  1  0
 31 37  2  0
 31 32  1  0
 32 33  1  0
 33 34  1  0
 35 36  1  0
 35 33  2  0
 37 35  1  0
 38 39  1  0
 38 37  1  0
 39 40  1  0
 40 41  2  0
 42 41  1  0
 42 43  1  0
 44 42  2  0
 45 39  2  0
 45 44  1  0
 46 52  1  0
 47 55  1  0
 47 48  1  0
 48 49  1  0
 49 72  1  0
 50 49  1  0
 51 50  1  0
 51 47  1  0
 52 51  1  0
 53 52  2  0
 54 57  1  0
 55 54  1  0
 56 55  2  0
 58 64  1  0
 58 54  1  0
 59 70  1  0
 59 60  1  0
 61 60  2  0
 62 59  2  0
 63 62  1  0
 63 64  2  0
 64 61  1  0
 65 66  1  0
 66 70  2  0
 66 67  1  0
 67 68  1  0
 69 68  1  0
 70 69  1  0
 71 67  1  0
 73 72  1  0
 74 77  1  1
 74 46  1  0
 75 74  1  0
 76 74  1  0
M  ISO  4   2 101   7 101  18 100  21 100
M  END
>  <TORSDO>  (10) 
F 14

>  <SCORE>  (10) 
-12.346

>  <name>  (10) 
9

>  <ligand_id>  (10) 
9

>  <original_smiles>  (10) 
[H]OC1([H])C([H])([H])N(C(=O)C([H])(N([H])C(=O)N([H])C(N([H])[H])=[N+]([H])C(=O)C(=O)ON(C(=O)C([H])([H])C2([H])N=C(c3c([H])c([H])c(Cl)c([H])c3[H])c3c(sc(C([H])([H])[H])c3C([H])([H])[H])-n3c(C([H])([H])[H])nnc32)C([H])([H])[H])C(C([H])([H])[H])(C([H])([H])[H])C([H])([H])[H])C([H])(C(=O)N([H])C([H])([H])c2c([H])c([H])c(C3=C(C([H])([H])[H])N([H])C([H])([H])S3)c([H])c2[H])C1([H])[H]

>  <smiles>  (10) 
[H]OC1([H])C([H])([H])N(C(=O)C([H])(N([H])C(=O)N([H])C(N([H])[H])=[N+]([H])C(=O)C(=O)ON(C(=O)C([H])([H])C2([H])N=C(c3c([H])c([H])c(Cl)c([H])c3[H])c3c(sc(C([H])([H])[H])c3C([H])([H])[H])-n3c(C([H])([H])[H])nnc32)C([H])([H])[H])C(C([H])([H])[H])(C([H])([H])[H])C([H])([H])[H])C([H])(C(=O)N([H])C([H])([H])c2c([H])c([H])c(C3=C(C([H])([H])[H])N([H])C([H])([H])S3)c([H])c2[H])C1([H])[H]

$$$$
10:0:0
     RDKit          3D

 76 82  0  0  1  0  0  0  0  0999 V2000
   26.1540  -27.5870  -16.2020 C   0  0  0  0  0  3  0  0  0  0  0  0
   25.8920  -24.7300  -15.5540 N   0  0  0  0  0  0  0  0  0  0  0  0
   26.6000  -25.4430  -14.7030 C   0  0  0  0  0  0  0  0  0  0  0  0
   27.1220  -24.9340  -13.6930 O   0  0  0  0  0  0  0  0  0  0  0  0
   26.3310  -26.7680  -14.9240 N   0  0  0  0  0  0  0  0  0  0  0  0
   25.6740  -25.2020  -16.4180 H   0  0  0  0  0  0  0  0  0  0  0  0
   26.6290  -27.3390  -14.1470 H   0  0  0  0  0  0  0  0  0  0  0  0
   24.9850  -23.6270  -15.2640 C   0  0  0  0  0  3  0  0  0  0  0  0
   21.8960  -23.9040  -12.8160 C   0  0  0  0  0  3  0  0  0  0  0  0
   21.4440  -22.6870  -11.9990 C   0  0  0  0  0  2  0  0  0  0  0  0
   22.7130  -21.8870  -11.7930 C   0  0  0  0  0  3  0  0  0  0  0  0
   23.5720  -22.1710  -13.0260 C   0  0  0  0  0  2  0  0  0  0  0  0
   23.0880  -23.4410  -13.5630 N   0  0  0  0  0  0  0  0  0  0  0  0
   23.7350  -24.1760  -14.4930 C   0  0  0  0  0  0  0  0  0  0  0  0
   23.3680  -25.3280  -14.7040 O   0  0  0  0  0  0  0  0  0  0  0  0
   19.9330  -25.3360  -13.1010 N   0  0  0  0  0  0  0  0  0  0  0  0
   20.7180  -24.4150  -13.6700 C   0  0  0  0  0  0  0  0  0  0  0  0
   20.4990  -23.9430  -14.7890 O   0  0  0  0  0  0  0  0  0  0  0  0
   20.1970  -25.6850  -12.1900 H   0  0  0  0  0  0  0  0  0  0  0  0
   18.6630  -25.8080  -13.6430 C   0  0  0  0  0  2  0  0  0  0  0  0
   15.3170  -23.2150  -12.6240 C   0  0  0  0  0  0  0  0  0  0  0  0
   16.3570  -23.4280  -11.6950 C   0  0  0  0  0  3  0  0  0  0  0  0
   17.4380  -24.2630  -12.0230 C   0  0  0  0  0  3  0  0  0  0  0  0
   15.3720  -23.8440  -13.8850 C   0  0  0  0  0  3  0  0  0  0  0  0
   16.4570  -24.6810  -14.2130 C   0  0  0  0  0  3  0  0  0  0  0  0
   17.4970  -24.8940  -13.2840 C   0  0  0  0  0  0  0  0  0  0  0  0
   12.1840  -23.6900  -13.2400 C   0  0  0  0  0  1  0  0  0  0  0  0
   12.8510  -22.5530  -12.4920 C   0  0  0  0  0  0  0  0  0  0  0  0
   12.0420  -21.5870  -11.9300 N   0  0  0  0  0  0  0  0  0  0  0  0
   12.6870  -20.6370  -11.0310 C   0  0  0  0  0  2  0  0  0  0  0  0
   14.4530  -20.9170  -11.3350 S   0  0  0  0  0  0  0  0  0  0  0  0
   14.1560  -22.3980  -12.2300 C   0  0  0  0  0  0  0  0  0  0  0  0
   11.0260  -21.6320  -11.9490 H   0  0  0  0  0  0  0  0  0  0  0  0
   23.3980  -22.3530  -10.6420 O   0  0  0  0  0  0  0  0  0  0  0  0
   23.5950  -23.2760  -10.7670 H   0  0  0  0  0  0  0  0  0  0  0  0
   24.6730  -23.0030  -16.6710 C   0  0  1  0  0  0  0  0  0  0  0  0
   25.9770  -22.3890  -17.2340 C   0  0  0  0  0  1  0  0  0  0  0  0
   24.1420  -24.0410  -17.6930 C   0  0  0  0  0  1  0  0  0  0  0  0
   23.6390  -21.8660  -16.5830 C   0  0  0  0  0  1  0  0  0  0  0  0
   26.9770  -27.0380  -17.3930 C   0  0  0  0  0  0  0  0  0  0  0  0
   26.4760  -27.0090  -18.5340 O   0  0  0  0  0  0  0  0  0  0  0  0
   28.1400  -26.6450  -17.1660 O   0  0  0  0  0  1  0  0  0  0  0  0
   24.1360  -29.2110  -16.9960 C   0  0  0  0  0  3  0  0  0  0  0  0
   24.6770  -28.0080  -16.5980 C   0  0  0  0  0  3  0  0  0  0  0  0
   22.6630  -29.4700  -17.3400 C   0  0  0  0  0  0  0  0  0  0  0  0
   21.8230  -28.5410  -17.5410 N   0  0  0  0  0  2  0  0  0  0  0  0
   22.2800  -27.6440  -17.3890 H   0  0  0  0  0  0  0  0  0  0  0  0
   22.3360  -30.8230  -17.4830 O   0  0  0  0  0  0  0  0  0  0  0  0
   21.0780  -31.4020  -17.1380 C   0  0  0  0  0  0  0  0  0  0  0  0
   20.1950  -30.8670  -16.4570 O   0  0  0  0  0  0  0  0  0  0  0  0
   21.0150  -32.9240  -17.3900 C   0  0  0  0  0  2  0  0  0  0  0  0
   21.4330  -33.6780  -16.1010 C   0  0  0  0  0  3  0  0  0  0  0  0
   22.7810  -33.2340  -15.7590 N   0  0  0  0  0  0  0  0  0  0  0  0
   21.4090  -35.1970  -16.1540 C   0  0  0  0  0  0  0  0  0  0  0  0
   21.1850  -35.9630  -17.2300 N   0  0  0  0  0  0  0  0  0  0  0  0
   21.3800  -37.2660  -16.8080 N   0  0  0  0  0  0  0  0  0  0  0  0
   21.7100  -37.1860  -15.5150 C   0  0  0  0  0  0  0  0  0  0  0  0
   22.0760  -38.3740  -14.6780 C   0  0  0  0  0  1  0  0  0  0  0  0
   21.7080  -35.9170  -15.0520 N   0  0  0  0  0  0  0  0  0  0  0  0
   21.9570  -35.4150  -13.7570 C   0  0  0  0  0  0  0  0  0  0  0  0
   21.4090  -36.1280  -12.2720 S   0  0  0  0  0  0  0  0  0  0  0  0
   22.0520  -34.8010  -11.3440 C   0  0  0  0  0  0  0  0  0  0  0  0
   21.9010  -34.7970   -9.8560 C   0  0  0  0  0  1  0  0  0  0  0  0
   22.6410  -33.8460  -12.1450 C   0  0  0  0  0  0  0  0  0  0  0  0
   23.2070  -32.5640  -11.5910 C   0  0  0  0  0  1  0  0  0  0  0  0
   22.6270  -34.2320  -13.5320 C   0  0  0  0  0  0  0  0  0  0  0  0
   23.2860  -33.4360  -14.6080 C   0  0  0  0  0  0  0  0  0  0  0  0
   24.6210  -32.8680  -14.3590 C   0  0  0  0  0  0  0  0  0  0  0  0
   25.6440  -33.6640  -13.8010 C   0  0  0  0  0  3  0  0  0  0  0  0
   26.9100  -33.1040  -13.5490 C   0  0  0  0  0  3  0  0  0  0  0  0
   27.1540  -31.7520  -13.8510 C   0  0  0  0  0  0  0  0  0  0  0  0
   28.7030  -31.0590  -13.5510 Cl  0  0  0  0  0  0  0  0  0  0  0  0
   26.1230  -30.9560  -14.3710 C   0  0  0  0  0  3  0  0  0  0  0  0
   24.8620  -31.5110  -14.6380 C   0  0  0  0  0  3  0  0  0  0  0  0
   23.8830  -26.9430  -16.5370 O   0  0  0  0  0  0  0  0  0  0  0  0
   24.1320  -26.4020  -15.7890 H   0  0  0  0  0  0  0  0  0  0  0  0
  1 40  1  0
  1  5  1  0
  2  8  1  0
  2  3  1  0
  3  4  2  0
  5  3  1  0
  5  7  1  0
  6  2  1  0
  8 14  1  0
  9 17  1  0
  9 10  1  0
 10 11  1  0
 11 34  1  0
 12 11  1  0
 13 12  1  0
 13  9  1  0
 14 13  1  0
 15 14  2  0
 16 19  1  0
 17 16  1  0
 18 17  2  0
 20 26  1  0
 20 16  1  0
 21 32  1  0
 21 22  1  0
 23 22  2  0
 24 21  2  0
 25 24  1  0
 25 26  2  0
 26 23  1  0
 27 28  1  0
 28 32  2  0
 28 29  1  0
 29 30  1  0
 31 30  1  0
 32 31  1  0
 33 29  1  0
 35 34  1  0
 36 39  1  1
 36  8  1  0
 37 36  1  0
 38 36  1  0
 40 42  1  0
 41 40  2  0
 44 43  1  0
 44 75  1  0
 44  1  1  0
 45 43  2  0
 46 47  1  0
 46 45  1  0
 48 45  1  0
 48 49  1  0
 49 50  2  0
 51 49  1  0
 52 51  1  0
 52 53  1  0
 53 67  2  0
 54 52  1  0
 54 59  1  0
 55 56  1  0
 55 54  2  0
 56 57  2  0
 57 59  1  0
 57 58  1  0
 59 60  1  0
 60 66  2  0
 60 61  1  0
 61 62  1  0
 62 63  1  0
 64 65  1  0
 64 62  2  0
 66 64  1  0
 67 68  1  0
 67 66  1  0
 68 69  1  0
 69 70  2  0
 71 72  1  0
 71 70  1  0
 73 71  2  0
 74 73  1  0
 74 68  2  0
 75 76  1  0
M  ISO  4   3 101   5 101  48 100  49 100
M  END
>  <TORSDO>  (11) 
F 18

>  <SCORE>  (11) 
-13.465

>  <name>  (11) 
10

>  <ligand_id>  (11) 
10

>  <original_smiles>  (11) 
[H]N=C(OC(=O)C([H])([H])C1([H])N=C(c2c([H])c([H])c(Cl)c([H])c2[H])c2c(sc(C([H])([H])[H])c2C([H])([H])[H])-n2c(C([H])([H])[H])nnc21)C([H])=C(O[H])C([H])(C(=O)[O-])N([H])C(=O)N([H])C([H])(C(=O)N1C([H])([H])C([H])(O[H])C([H])([H])C1([H])C(=O)N([H])C([H])([H])c1c([H])c([H])c(C2=C(C([H])([H])[H])N([H])C([H])([H])S2)c([H])c1[H])C(C([H])([H])[H])(C([H])([H])[H])C([H])([H])[H]

>  <smiles>  (11) 
[H]N=C(OC(=O)C([H])([H])C1([H])N=C(c2c([H])c([H])c(Cl)c([H])c2[H])c2c(sc(C([H])([H])[H])c2C([H])([H])[H])-n2c(C([H])([H])[H])nnc21)C([H])=C(O[H])C([H])(C(=O)[O-])N([H])C(=O)N([H])C([H])(C(=O)N1C([H])([H])C([H])(O[H])C([H])([H])C1([H])C(=O)N([H])C([H])([H])c1c([H])c([H])c(C2=C(C([H])([H])[H])N([H])C([H])([H])S2)c([H])c1[H])C(C([H])([H])[H])(C([H])([H])[H])C([H])([H])[H]

$$$$
11:0:0
     RDKit          3D

 74 80  0  0  1  0  0  0  0  0999 V2000
   25.8930  -27.2320  -16.4540 C   0  0  0  0  0  0  0  0  0  0  0  0
   25.1790  -28.4650  -16.5930 N   0  0  0  0  0  0  0  0  0  0  0  0
   26.1610  -26.5430  -17.4420 O   0  0  0  0  0  0  0  0  0  0  0  0
   26.7920  -29.4650  -18.1470 C   0  0  0  0  0  1  0  0  0  0  0  0
   25.9230  -29.6120  -16.9620 N   0  0  0  0  0  0  0  0  0  0  0  0
   26.4630  -29.9550  -16.1660 H   0  0  0  0  0  0  0  0  0  0  0  0
   26.3470  -26.8960  -15.0990 O   0  0  0  0  0  0  0  0  0  0  0  0
   25.8970  -24.6660  -15.5610 N   0  0  0  0  0  0  0  0  0  0  0  0
   26.5890  -25.4820  -14.7160 C   0  0  0  0  0  0  0  0  0  0  0  0
   27.1370  -25.0370  -13.6860 O   0  0  0  0  0  0  0  0  0  0  0  0
   25.6980  -25.1210  -16.4460 H   0  0  0  0  0  0  0  0  0  0  0  0
   24.9620  -23.6060  -15.2640 C   0  0  0  0  0  3  0  0  0  0  0  0
   21.8950  -23.9420  -12.8110 C   0  0  0  0  0  3  0  0  0  0  0  0
   21.4560  -22.7290  -11.9760 C   0  0  0  0  0  2  0  0  0  0  0  0
   22.7300  -21.9370  -11.7660 C   0  0  0  0  0  3  0  0  0  0  0  0
   23.5860  -22.2260  -13.0000 C   0  0  0  0  0  2  0  0  0  0  0  0
   23.0910  -23.4920  -13.5540 N   0  0  0  0  0  0  0  0  0  0  0  0
   23.7190  -24.2050  -14.5250 C   0  0  0  0  0  0  0  0  0  0  0  0
   23.3560  -25.3480  -14.8270 O   0  0  0  0  0  0  0  0  0  0  0  0
   19.9190  -25.3400  -13.1080 N   0  0  0  0  0  0  0  0  0  0  0  0
   20.7140  -24.4230  -13.6710 C   0  0  0  0  0  0  0  0  0  0  0  0
   20.4950  -23.9340  -14.7810 O   0  0  0  0  0  0  0  0  0  0  0  0
   20.1780  -25.7000  -12.2010 H   0  0  0  0  0  0  0  0  0  0  0  0
   18.6430  -25.7890  -13.6480 C   0  0  0  0  0  2  0  0  0  0  0  0
   15.3300  -23.1630  -12.6110 C   0  0  0  0  0  0  0  0  0  0  0  0
   16.3660  -23.3960  -11.6840 C   0  0  0  0  0  3  0  0  0  0  0  0
   17.4390  -24.2410  -12.0160 C   0  0  0  0  0  3  0  0  0  0  0  0
   15.3800  -23.7820  -13.8780 C   0  0  0  0  0  3  0  0  0  0  0  0
   16.4550  -24.6290  -14.2110 C   0  0  0  0  0  3  0  0  0  0  0  0
   17.4900  -24.8630  -13.2820 C   0  0  0  0  0  0  0  0  0  0  0  0
   12.1970  -23.6000  -13.2400 C   0  0  0  0  0  1  0  0  0  0  0  0
   12.8720  -22.4750  -12.4800 C   0  0  0  0  0  0  0  0  0  0  0  0
   12.0700  -21.5070  -11.9110 N   0  0  0  0  0  0  0  0  0  0  0  0
   12.7230  -20.5740  -11.0000 C   0  0  0  0  0  2  0  0  0  0  0  0
   14.4860  -20.8680  -11.3010 S   0  0  0  0  0  0  0  0  0  0  0  0
   14.1780  -22.3370  -12.2110 C   0  0  0  0  0  0  0  0  0  0  0  0
   11.0550  -21.5380  -11.9400 H   0  0  0  0  0  0  0  0  0  0  0  0
   23.4110  -22.4010  -10.6130 O   0  0  0  0  0  0  0  0  0  0  0  0
   23.6140  -23.3240  -10.7340 H   0  0  0  0  0  0  0  0  0  0  0  0
   24.6470  -22.9700  -16.6640 C   0  0  1  0  0  0  0  0  0  0  0  0
   25.9560  -22.3750  -17.2440 C   0  0  0  0  0  1  0  0  0  0  0  0
   24.0710  -23.9800  -17.6940 C   0  0  0  0  0  1  0  0  0  0  0  0
   23.6290  -21.8240  -16.5540 C   0  0  0  0  0  1  0  0  0  0  0  0
   23.8920  -28.5340  -17.3920 C   0  0  0  0  0  2  0  0  0  0  0  0
   21.4190  -28.2530  -16.8740 C   0  0  0  0  0  1  0  0  0  0  0  0
   22.5950  -29.2520  -16.7780 C   0  0  0  0  0  3  0  0  0  0  0  0
   21.1240  -31.3930  -17.0600 C   0  0  0  0  0  0  0  0  0  0  0  0
   20.2280  -30.9960  -16.3180 O   0  0  0  0  0  0  0  0  0  0  0  0
   22.1830  -30.5750  -17.3970 N   0  0  0  0  0  0  0  0  0  0  0  0
   22.8850  -31.0060  -17.9850 H   0  0  0  0  0  0  0  0  0  0  0  0
   21.1600  -32.9200  -17.3790 C   0  0  0  0  0  2  0  0  0  0  0  0
   21.4960  -33.7150  -16.0750 C   0  0  0  0  0  3  0  0  0  0  0  0
   22.8210  -33.2670  -15.6640 N   0  0  0  0  0  0  0  0  0  0  0  0
   21.4850  -35.2430  -16.1220 C   0  0  0  0  0  0  0  0  0  0  0  0
   21.3090  -36.0180  -17.1990 N   0  0  0  0  0  0  0  0  0  0  0  0
   21.4960  -37.3190  -16.7620 N   0  0  0  0  0  0  0  0  0  0  0  0
   21.7750  -37.2330  -15.4580 C   0  0  0  0  0  0  0  0  0  0  0  0
   22.1170  -38.4190  -14.6050 C   0  0  0  0  0  1  0  0  0  0  0  0
   21.7440  -35.9600  -15.0030 N   0  0  0  0  0  0  0  0  0  0  0  0
   21.9330  -35.4520  -13.6990 C   0  0  0  0  0  0  0  0  0  0  0  0
   21.3330  -36.1740  -12.2380 S   0  0  0  0  0  0  0  0  0  0  0  0
   21.9210  -34.8390  -11.2840 C   0  0  0  0  0  0  0  0  0  0  0  0
   21.7090  -34.8410   -9.8050 C   0  0  0  0  0  1  0  0  0  0  0  0
   22.5320  -33.8780  -12.0580 C   0  0  0  0  0  0  0  0  0  0  0  0
   23.0660  -32.5900  -11.4830 C   0  0  0  0  0  1  0  0  0  0  0  0
   22.5800  -34.2630  -13.4440 C   0  0  0  0  0  0  0  0  0  0  0  0
   23.2780  -33.4630  -14.4930 C   0  0  0  0  0  0  0  0  0  0  0  0
   24.5970  -32.8800  -14.1870 C   0  0  0  0  0  0  0  0  0  0  0  0
   25.6090  -33.6740  -13.6110 C   0  0  0  0  0  3  0  0  0  0  0  0
   26.8610  -33.1070  -13.3080 C   0  0  0  0  0  3  0  0  0  0  0  0
   27.0970  -31.7440  -13.5570 C   0  0  0  0  0  0  0  0  0  0  0  0
   28.6280  -31.0390  -13.2070 Cl  0  0  0  0  0  0  0  0  0  0  0  0
   26.0750  -30.9450  -14.0850 C   0  0  0  0  0  3  0  0  0  0  0  0
   24.8370  -31.5150  -14.4340 C   0  0  0  0  0  3  0  0  0  0  0  0
  1  7  1  0
  2  1  1  0
  3  1  2  0
  4  5  1  0
  5  2  1  0
  5  6  1  0
  7  9  1  0
  8 12  1  0
  8  9  1  0
  9 10  2  0
 11  8  1  0
 12 18  1  0
 13 21  1  0
 13 14  1  0
 14 15  1  0
 15 38  1  0
 16 15  1  0
 17 16  1  0
 17 13  1  0
 18 17  1  0
 19 18  2  0
 20 23  1  0
 21 20  1  0
 22 21  2  0
 24 30  1  0
 24 20  1  0
 25 36  1  0
 25 26  1  0
 27 26  2  0
 28 25  2  0
 29 28  1  0
 29 30  2  0
 30 27  1  0
 31 32  1  0
 32 36  2  0
 32 33  1  0
 33 34  1  0
 35 34  1  0
 36 35  1  0
 37 33  1  0
 39 38  1  0
 40 43  1  1
 40 12  1  0
 41 40  1  0
 42 40  1  0
 44 46  1  0
 44  2  1  0
 46 45  1  0
 47 48  2  0
 49 47  1  0
 49 46  1  0
 50 49  1  0
 51 47  1  0
 52 51  1  0
 52 53  1  0
 53 67  2  0
 54 52  1  0
 54 59  1  0
 55 56  1  0
 55 54  2  0
 56 57  2  0
 57 59  1  0
 57 58  1  0
 59 60  1  0
 60 66  2  0
 60 61  1  0
 61 62  1  0
 62 63  1  0
 64 65  1  0
 64 62  2  0
 66 64  1  0
 67 68  1  0
 67 66  1  0
 68 69  1  0
 69 70  2  0
 71 70  1  0
 71 72  1  0
 73 71  2  0
 74 68  2  0
 74 73  1  0
M  ISO  4   7 101   9 101  47 100  49 100
M  END
>  <TORSDO>  (12) 
F 17

>  <SCORE>  (12) 
-12.730

>  <name>  (12) 
11

>  <ligand_id>  (12) 
11

>  <original_smiles>  (12) 
[H]OC1([H])C([H])([H])N(C(=O)C([H])(N([H])C(=O)OC(=O)N(N([H])C([H])([H])[H])C([H])([H])C([H])(N([H])C(=O)C([H])([H])C2([H])N=C(c3c([H])c([H])c(Cl)c([H])c3[H])c3c(sc(C([H])([H])[H])c3C([H])([H])[H])-n3c(C([H])([H])[H])nnc32)C([H])([H])[H])C(C([H])([H])[H])(C([H])([H])[H])C([H])([H])[H])C([H])(C(=O)N([H])C([H])([H])c2c([H])c([H])c(C3=C(C([H])([H])[H])N([H])C([H])([H])S3)c([H])c2[H])C1([H])[H]

>  <smiles>  (12) 
[H]OC1([H])C([H])([H])N(C(=O)C([H])(N([H])C(=O)OC(=O)N(N([H])C([H])([H])[H])C([H])([H])C([H])(N([H])C(=O)C([H])([H])C2([H])N=C(c3c([H])c([H])c(Cl)c([H])c3[H])c3c(sc(C([H])([H])[H])c3C([H])([H])[H])-n3c(C([H])([H])[H])nnc32)C([H])([H])[H])C(C([H])([H])[H])(C([H])([H])[H])C([H])([H])[H])C([H])(C(=O)N([H])C([H])([H])c2c([H])c([H])c(C3=C(C([H])([H])[H])N([H])C([H])([H])S3)c([H])c2[H])C1([H])[H]

$$$$
12:0:0
     RDKit          3D

 79 86  0  0  1  0  0  0  0  0999 V2000
   25.0680  -27.7900  -16.5020 C   0  0  0  0  0  3  0  0  0  0  0  0
   25.3630  -27.2980  -15.2530 N   0  0  0  0  0  0  0  0  0  0  0  0
   25.7640  -27.4460  -17.6130 N   0  0  0  0  0  0  0  0  0  0  0  0
   24.7060  -27.4690  -14.5040 H   0  0  0  0  0  0  0  0  0  0  0  0
   25.4790  -27.7600  -18.5320 H   0  0  0  0  0  0  0  0  0  0  0  0
   25.6880  -24.6550  -15.3490 N   0  0  0  0  0  0  0  0  0  0  0  0
   26.5860  -25.2880  -14.6090 C   0  0  0  0  0  0  0  0  0  0  0  0
   27.2760  -24.7160  -13.7530 O   0  0  0  0  0  0  0  0  0  0  0  0
   26.5920  -26.6160  -14.8680 N   0  0  0  0  0  0  0  0  0  0  0  0
   25.3170  -25.1790  -16.1230 H   0  0  0  0  0  0  0  0  0  0  0  0
   27.1730  -27.2720  -14.3660 H   0  0  0  0  0  0  0  0  0  0  0  0
   24.8780  -23.5040  -14.9890 C   0  0  0  0  0  3  0  0  0  0  0  0
   21.7160  -23.6420  -12.6530 C   0  0  0  0  0  3  0  0  0  0  0  0
   21.1890  -22.3520  -12.0090 C   0  0  0  0  0  2  0  0  0  0  0  0
   22.4150  -21.4770  -11.8620 C   0  0  0  0  0  3  0  0  0  0  0  0
   23.3330  -21.8870  -13.0150 C   0  0  0  0  0  2  0  0  0  0  0  0
   22.9170  -23.2380  -13.4090 N   0  0  0  0  0  0  0  0  0  0  0  0
   23.6200  -24.0460  -14.2420 C   0  0  0  0  0  0  0  0  0  0  0  0
   23.3190  -25.2380  -14.3940 O   0  0  0  0  0  0  0  0  0  0  0  0
   19.8290  -25.1780  -12.8330 N   0  0  0  0  0  0  0  0  0  0  0  0
   20.5910  -24.2900  -13.4790 C   0  0  0  0  0  0  0  0  0  0  0  0
   20.3860  -23.9460  -14.6460 O   0  0  0  0  0  0  0  0  0  0  0  0
   20.0780  -25.4160  -11.8830 H   0  0  0  0  0  0  0  0  0  0  0  0
   18.6000  -25.7630  -13.3550 C   0  0  0  0  0  2  0  0  0  0  0  0
   15.0980  -23.2670  -12.6750 C   0  0  0  0  0  0  0  0  0  0  0  0
   16.1070  -23.3560  -11.6930 C   0  0  0  0  0  3  0  0  0  0  0  0
   17.2400  -24.1580  -11.9110 C   0  0  0  0  0  3  0  0  0  0  0  0
   15.2380  -23.9880  -13.8790 C   0  0  0  0  0  3  0  0  0  0  0  0
   16.3730  -24.7920  -14.0960 C   0  0  0  0  0  3  0  0  0  0  0  0
   17.3800  -24.8830  -13.1140 C   0  0  0  0  0  0  0  0  0  0  0  0
   12.0290  -23.9070  -13.4510 C   0  0  0  0  0  1  0  0  0  0  0  0
   12.6040  -22.7080  -12.7230 C   0  0  0  0  0  0  0  0  0  0  0  0
   11.7220  -21.7540  -12.2570 N   0  0  0  0  0  0  0  0  0  0  0  0
   12.2740  -20.7360  -11.3710 C   0  0  0  0  0  2  0  0  0  0  0  0
   14.0640  -20.9510  -11.5550 S   0  0  0  0  0  0  0  0  0  0  0  0
   13.8840  -22.4850  -12.3910 C   0  0  0  0  0  0  0  0  0  0  0  0
   10.7130  -21.8450  -12.3320 H   0  0  0  0  0  0  0  0  0  0  0  0
   23.0670  -21.7470  -10.6300 O   0  0  0  0  0  0  0  0  0  0  0  0
   23.3020  -22.6700  -10.6090 H   0  0  0  0  0  0  0  0  0  0  0  0
   24.5540  -22.7630  -16.3380 C   0  0  1  0  0  0  0  0  0  0  0  0
   25.8570  -22.1250  -16.8770 C   0  0  0  0  0  1  0  0  0  0  0  0
   24.0000  -23.7060  -17.4360 C   0  0  0  0  0  1  0  0  0  0  0  0
   23.5360  -21.6220  -16.1310 C   0  0  0  0  0  1  0  0  0  0  0  0
   24.3440  -30.0290  -17.4220 C   0  0  0  0  0  3  0  0  0  0  0  0
   22.6330  -28.8090  -16.5330 C   0  0  0  0  0  3  0  0  0  0  0  0
   24.0010  -28.8080  -16.7620 C   0  0  0  0  0  0  0  0  0  0  0  0
   23.2070  -30.7600  -17.6250 C   0  0  0  0  0  0  0  0  0  0  0  0
   23.0190  -32.0940  -18.2780 C   0  0  0  0  0  1  0  0  0  0  0  0
   22.1690  -30.0120  -17.0910 N   0  0  0  0  0  0  0  0  0  0  0  0
   20.1880  -31.2060  -16.4280 C   0  0  0  0  0  0  0  0  0  0  0  0
   19.7270  -30.7640  -15.3720 O   0  0  0  0  0  0  0  0  0  0  0  0
   20.8290  -30.4260  -17.3280 N   0  0  0  0  0  0  0  0  0  0  0  0
   20.8480  -30.8520  -18.2420 H   0  0  0  0  0  0  0  0  0  0  0  0
   20.0840  -32.7220  -16.7290 C   0  0  0  0  0  2  0  0  0  0  0  0
   20.6930  -33.5770  -15.5790 C   0  0  0  0  0  3  0  0  0  0  0  0
   22.0440  -33.0920  -15.2940 N   0  0  0  0  0  0  0  0  0  0  0  0
   20.7410  -35.0790  -15.8260 C   0  0  0  0  0  0  0  0  0  0  0  0
   20.4700  -35.7170  -16.9720 N   0  0  0  0  0  0  0  0  0  0  0  0
   20.7450  -37.0520  -16.7330 N   0  0  0  0  0  0  0  0  0  0  0  0
   21.1750  -37.1150  -15.4690 C   0  0  0  0  0  0  0  0  0  0  0  0
   21.6460  -38.3800  -14.8210 C   0  0  0  0  0  1  0  0  0  0  0  0
   21.1640  -35.9130  -14.8510 N   0  0  0  0  0  0  0  0  0  0  0  0
   21.4940  -35.5610  -13.5270 C   0  0  0  0  0  0  0  0  0  0  0  0
   21.0880  -36.4790  -12.1120 S   0  0  0  0  0  0  0  0  0  0  0  0
   21.7480  -35.2480  -11.0700 C   0  0  0  0  0  0  0  0  0  0  0  0
   21.7050  -35.4420   -9.5880 C   0  0  0  0  0  1  0  0  0  0  0  0
   22.2380  -34.1760  -11.7840 C   0  0  0  0  0  0  0  0  0  0  0  0
   22.7950  -32.9460  -11.1140 C   0  0  0  0  0  1  0  0  0  0  0  0
   22.1280  -34.3810  -13.2060 C   0  0  0  0  0  0  0  0  0  0  0  0
   22.6620  -33.4200  -14.2220 C   0  0  0  0  0  0  0  0  0  0  0  0
   23.9990  -32.8280  -14.0040 C   0  0  0  0  0  0  0  0  0  0  0  0
   25.0760  -33.6430  -13.5920 C   0  0  0  0  0  3  0  0  0  0  0  0
   26.3410  -33.0760  -13.3530 C   0  0  0  0  0  3  0  0  0  0  0  0
   26.5370  -31.6960  -13.5360 C   0  0  0  0  0  0  0  0  0  0  0  0
   28.0810  -30.9890  -13.2500 Cl  0  0  0  0  0  0  0  0  0  0  0  0
   25.4700  -30.8870  -13.9540 C   0  0  0  0  0  3  0  0  0  0  0  0
   24.2000  -31.4440  -14.1830 C   0  0  0  0  0  3  0  0  0  0  0  0
   28.0380  -27.3960  -17.7570 C   0  0  0  0  0  1  0  0  0  0  0  0
   26.8640  -26.6140  -17.5940 O   0  0  0  0  0  0  0  0  0  0  0  0
  1  3  1  0
  1  2  1  0
  2  9  1  0
  2  4  1  0
  3 79  1  0
  5  3  1  0
  6 12  1  0
  6  7  1  0
  7  8  2  0
  9  7  1  0
  9 11  1  0
 10  6  1  0
 12 18  1  0
 13 21  1  0
 13 14  1  0
 14 15  1  0
 15 38  1  0
 16 15  1  0
 17 16  1  0
 17 13  1  0
 18 17  1  0
 19 18  2  0
 20 23  1  0
 21 20  1  0
 22 21  2  0
 24 30  1  0
 24 20  1  0
 25 36  1  0
 25 26  1  0
 27 26  2  0
 28 25  2  0
 29 28  1  0
 29 30  2  0
 30 27  1  0
 31 32  1  0
 32 36  2  0
 32 33  1  0
 33 34  1  0
 35 34  1  0
 36 35  1  0
 37 33  1  0
 38 39  1  0
 40 43  1  1
 40 12  1  0
 41 40  1  0
 42 40  1  0
 44 46  1  0
 46 45  2  0
 46  1  1  0
 47 44  2  0
 47 49  1  0
 48 47  1  0
 49 45  1  0
 50 51  2  0
 52 49  1  0
 52 50  1  0
 53 52  1  0
 54 50  1  0
 55 54  1  0
 55 56  1  0
 56 70  2  0
 57 55  1  0
 57 62  1  0
 58 59  1  0
 58 57  2  0
 59 60  2  0
 60 62  1  0
 60 61  1  0
 62 63  1  0
 63 69  2  0
 63 64  1  0
 64 65  1  0
 65 66  1  0
 67 68  1  0
 67 65  2  0
 69 67  1  0
 70 71  1  0
 70 69  1  0
 71 72  1  0
 72 73  2  0
 74 73  1  0
 74 75  1  0
 76 74  2  0
 77 71  2  0
 77 76  1  0
 78 79  1  0
M  ISO  4   7 101   9 101  50 100  52 100
M  END
>  <TORSDO>  (13) 
F 15

>  <SCORE>  (13) 
-8.385

>  <name>  (13) 
12

>  <ligand_id>  (13) 
12

>  <original_smiles>  (13) 
[H]OC1([H])C([H])([H])N(C(=O)C([H])(N([H])C(=O)N([H])N([H])C(c2c([H])c(C([H])([H])[H])n(N([H])C(=O)C([H])([H])C3([H])N=C(c4c([H])c([H])c(Cl)c([H])c4[H])c4c(sc(C([H])([H])[H])c4C([H])([H])[H])-n4c(C([H])([H])[H])nnc43)c2[H])=[N+]([H])OC([H])([H])[H])C(C([H])([H])[H])(C([H])([H])[H])C([H])([H])[H])C([H])(C(=O)N([H])C([H])([H])c2c([H])c([H])c(C3=C(C([H])([H])[H])N([H])C([H])([H])S3)c([H])c2[H])C1([H])[H]

>  <smiles>  (13) 
[H]OC1([H])C([H])([H])N(C(=O)C([H])(N([H])C(=O)N([H])N([H])C(c2c([H])c(C([H])([H])[H])n(N([H])C(=O)C([H])([H])C3([H])N=C(c4c([H])c([H])c(Cl)c([H])c4[H])c4c(sc(C([H])([H])[H])c4C([H])([H])[H])-n4c(C([H])([H])[H])nnc43)c2[H])=[N+]([H])OC([H])([H])[H])C(C([H])([H])[H])(C([H])([H])[H])C([H])([H])[H])C([H])(C(=O)N([H])C([H])([H])c2c([H])c([H])c(C3=C(C([H])([H])[H])N([H])C([H])([H])S3)c([H])c2[H])C1([H])[H]

$$$$
13:0:0
     RDKit          3D

 73 80  0  0  1  0  0  0  0  0999 V2000
   28.7830  -26.6690  -14.3690 C   0  0  0  0  0  1  0  0  0  0  0  0
   27.6320  -26.1570  -15.2580 C   0  0  0  0  0  3  0  0  0  0  0  0
   25.8490  -24.5870  -15.3030 N   0  0  0  0  0  0  0  0  0  0  0  0
   26.8840  -24.9980  -14.5820 C   0  0  0  0  0  0  0  0  0  0  0  0
   27.2380  -24.4670  -13.5230 O   0  0  0  0  0  0  0  0  0  0  0  0
   25.6130  -25.1630  -16.1030 H   0  0  0  0  0  0  0  0  0  0  0  0
   24.9370  -23.4860  -15.0540 C   0  0  0  0  0  3  0  0  0  0  0  0
   21.7680  -23.7770  -12.7560 C   0  0  0  0  0  3  0  0  0  0  0  0
   21.2440  -22.5320  -12.0240 C   0  0  0  0  0  2  0  0  0  0  0  0
   22.4750  -21.6780  -11.8070 C   0  0  0  0  0  3  0  0  0  0  0  0
   23.3970  -22.0110  -12.9790 C   0  0  0  0  0  2  0  0  0  0  0  0
   22.9750  -23.3270  -13.4750 N   0  0  0  0  0  0  0  0  0  0  0  0
   23.6740  -24.0780  -14.3640 C   0  0  0  0  0  0  0  0  0  0  0  0
   23.3580  -25.2490  -14.6110 O   0  0  0  0  0  0  0  0  0  0  0  0
   19.8830  -25.2920  -13.0610 N   0  0  0  0  0  0  0  0  0  0  0  0
   20.6490  -24.3590  -13.6360 C   0  0  0  0  0  0  0  0  0  0  0  0
   20.4520  -23.9300  -14.7740 O   0  0  0  0  0  0  0  0  0  0  0  0
   20.1280  -25.5980  -12.1290 H   0  0  0  0  0  0  0  0  0  0  0  0
   18.6550  -25.8330  -13.6270 C   0  0  0  0  0  2  0  0  0  0  0  0
   15.1620  -23.3720  -12.8000 C   0  0  0  0  0  0  0  0  0  0  0  0
   16.1730  -23.5160  -11.8270 C   0  0  0  0  0  3  0  0  0  0  0  0
   17.3040  -24.3070  -12.0920 C   0  0  0  0  0  3  0  0  0  0  0  0
   15.2960  -24.0250  -14.0430 C   0  0  0  0  0  3  0  0  0  0  0  0
   16.4300  -24.8160  -14.3080 C   0  0  0  0  0  3  0  0  0  0  0  0
   17.4390  -24.9630  -13.3350 C   0  0  0  0  0  0  0  0  0  0  0  0
   12.0840  -23.9970  -13.5470 C   0  0  0  0  0  1  0  0  0  0  0  0
   12.6650  -22.8200  -12.7880 C   0  0  0  0  0  0  0  0  0  0  0  0
   11.7880  -21.8850  -12.2760 N   0  0  0  0  0  0  0  0  0  0  0  0
   12.3490  -20.8960  -11.3630 C   0  0  0  0  0  2  0  0  0  0  0  0
   14.1370  -21.0980  -11.5830 S   0  0  0  0  0  0  0  0  0  0  0  0
   13.9490  -22.6040  -12.4690 C   0  0  0  0  0  0  0  0  0  0  0  0
   10.7790  -21.9770  -12.3410 H   0  0  0  0  0  0  0  0  0  0  0  0
   23.1200  -22.0400  -10.5960 O   0  0  0  0  0  0  0  0  0  0  0  0
   23.3610  -22.9600  -10.6450 H   0  0  0  0  0  0  0  0  0  0  0  0
   24.6500  -22.8170  -16.4500 C   0  0  1  0  0  0  0  0  0  0  0  0
   25.9560  -22.1740  -16.9740 C   0  0  0  0  0  1  0  0  0  0  0  0
   24.1470  -23.8200  -17.5210 C   0  0  0  0  0  1  0  0  0  0  0  0
   23.6070  -21.6860  -16.3320 C   0  0  0  0  0  1  0  0  0  0  0  0
   26.6830  -27.3190  -15.6650 C   0  0  0  0  0  2  0  0  0  0  0  0
   25.6350  -27.0470  -16.6230 O   0  0  0  0  0  0  0  0  0  0  0  0
   25.1580  -28.2530  -17.2540 C   0  0  0  0  0  2  0  0  0  0  0  0
   20.3670  -30.7740  -16.7640 C   0  0  0  0  0  0  0  0  0  0  0  0
   19.7730  -30.4700  -15.7260 O   0  0  0  0  0  0  0  0  0  0  0  0
   22.6630  -28.0950  -16.5430 C   0  0  0  0  0  2  0  0  0  0  0  0
   23.3920  -29.7080  -18.3500 C   0  0  0  0  0  2  0  0  0  0  0  0
   21.2060  -28.4300  -16.9550 C   0  0  0  0  0  2  0  0  0  0  0  0
   21.9000  -29.9890  -18.6520 C   0  0  0  0  0  2  0  0  0  0  0  0
   23.6680  -28.3240  -17.6950 C   0  0  0  0  0  3  0  0  0  0  0  0
   21.0950  -29.8250  -17.4320 N   0  0  0  0  0  0  0  0  0  0  0  0
   20.3530  -32.2770  -17.1570 C   0  0  0  0  0  2  0  0  0  0  0  0
   20.9320  -33.1680  -16.0180 C   0  0  0  0  0  3  0  0  0  0  0  0
   22.3010  -32.7290  -15.7570 N   0  0  0  0  0  0  0  0  0  0  0  0
   20.9240  -34.6710  -16.2750 C   0  0  0  0  0  0  0  0  0  0  0  0
   20.5930  -35.2880  -17.4160 N   0  0  0  0  0  0  0  0  0  0  0  0
   20.8350  -36.6330  -17.2000 N   0  0  0  0  0  0  0  0  0  0  0  0
   21.2990  -36.7250  -15.9500 C   0  0  0  0  0  0  0  0  0  0  0  0
   21.7490  -38.0140  -15.3300 C   0  0  0  0  0  1  0  0  0  0  0  0
   21.3450  -35.5310  -15.3210 N   0  0  0  0  0  0  0  0  0  0  0  0
   21.7250  -35.2050  -14.0030 C   0  0  0  0  0  0  0  0  0  0  0  0
   21.3400  -36.1280  -12.5850 S   0  0  0  0  0  0  0  0  0  0  0  0
   22.0720  -34.9300  -11.5530 C   0  0  0  0  0  0  0  0  0  0  0  0
   22.0760  -35.1380  -10.0720 C   0  0  0  0  0  1  0  0  0  0  0  0
   22.5700  -33.8640  -12.2700 C   0  0  0  0  0  0  0  0  0  0  0  0
   23.1930  -32.6600  -11.6070 C   0  0  0  0  0  1  0  0  0  0  0  0
   22.4060  -34.0500  -13.6890 C   0  0  0  0  0  0  0  0  0  0  0  0
   22.9380  -33.0960  -14.7110 C   0  0  0  0  0  0  0  0  0  0  0  0
   24.2990  -32.5570  -14.5290 C   0  0  0  0  0  0  0  0  0  0  0  0
   25.3590  -33.4080  -14.1520 C   0  0  0  0  0  3  0  0  0  0  0  0
   26.6520  -32.8840  -13.9540 C   0  0  0  0  0  3  0  0  0  0  0  0
   26.8820  -31.5080  -14.1200 C   0  0  0  0  0  0  0  0  0  0  0  0
   28.4530  -30.8370  -13.8860 Cl  0  0  0  0  0  0  0  0  0  0  0  0
   25.8190  -30.6670  -14.4690 C   0  0  0  0  0  3  0  0  0  0  0  0
   24.5330  -31.1800  -14.6990 C   0  0  0  0  0  3  0  0  0  0  0  0
  2  4  1  0
  2  1  1  0
  3  7  1  0
  3  4  1  0
  4  5  2  0
  6  3  1  0
  7 13  1  0
  8 16  1  0
  8  9  1  0
  9 10  1  0
 10 33  1  0
 11 10  1  0
 12 11  1  0
 12  8  1  0
 13 12  1  0
 14 13  2  0
 15 18  1  0
 16 15  1  0
 17 16  2  0
 19 25  1  0
 19 15  1  0
 20 31  1  0
 20 21  1  0
 22 21  2  0
 23 20  2  0
 24 23  1  0
 24 25  2  0
 25 22  1  0
 26 27  1  0
 27 31  2  0
 27 28  1  0
 28 29  1  0
 30 29  1  0
 31 30  1  0
 32 28  1  0
 34 33  1  0
 35 38  1  1
 35  7  1  0
 36 35  1  0
 37 35  1  0
 39  2  1  0
 40 39  1  0
 41 40  1  0
 42 43  2  0
 45 48  1  0
 46 44  1  0
 47 45  1  0
 47 49  1  0
 48 41  1  0
 48 44  1  0
 49 46  1  0
 49 42  1  0
 50 42  1  0
 51 50  1  0
 51 52  1  0
 52 66  2  0
 53 51  1  0
 53 58  1  0
 54 55  1  0
 54 53  2  0
 55 56  2  0
 56 57  1  0
 56 58  1  0
 58 59  1  0
 59 65  2  0
 59 60  1  0
 60 61  1  0
 61 62  1  0
 63 64  1  0
 63 61  2  0
 65 63  1  0
 66 67  1  0
 66 65  1  0
 67 68  1  0
 68 69  2  0
 70 69  1  0
 70 71  1  0
 72 70  2  0
 73 67  2  0
 73 72  1  0
M  ISO  4   2 101   4 101  42 100  49 100
M  END
>  <TORSDO>  (14) 
F 16

>  <SCORE>  (14) 
-12.186

>  <name>  (14) 
13

>  <ligand_id>  (14) 
13

>  <original_smiles>  (14) 
[H]OC1([H])C([H])([H])N(C(=O)C([H])(N([H])C(=O)C([H])(C([H])([H])[H])C([H])([H])OC([H])([H])C2([H])C([H])([H])C([H])([H])N(C(=O)C([H])([H])C3([H])N=C(c4c([H])c([H])c(Cl)c([H])c4[H])c4c(sc(C([H])([H])[H])c4C([H])([H])[H])-n4c(C([H])([H])[H])nnc43)C([H])([H])C2([H])[H])C(C([H])([H])[H])(C([H])([H])[H])C([H])([H])[H])C([H])(C(=O)N([H])C([H])([H])c2c([H])c([H])c(C3=C(C([H])([H])[H])N([H])C([H])([H])S3)c([H])c2[H])C1([H])[H]

>  <smiles>  (14) 
[H]OC1([H])C([H])([H])N(C(=O)C([H])(N([H])C(=O)C([H])(C([H])([H])[H])C([H])([H])OC([H])([H])C2([H])C([H])([H])C([H])([H])N(C(=O)C([H])([H])C3([H])N=C(c4c([H])c([H])c(Cl)c([H])c4[H])c4c(sc(C([H])([H])[H])c4C([H])([H])[H])-n4c(C([H])([H])[H])nnc43)C([H])([H])C2([H])[H])C(C([H])([H])[H])(C([H])([H])[H])C([H])([H])[H])C([H])(C(=O)N([H])C([H])([H])c2c([H])c([H])c(C3=C(C([H])([H])[H])N([H])C([H])([H])S3)c([H])c2[H])C1([H])[H]

$$$$
14:0:0
     RDKit          3D

 80 87  0  0  1  0  0  0  0  0999 V2000
   25.7480  -24.6830  -15.2220 N   0  0  0  0  0  0  0  0  0  0  0  0
   26.7790  -25.0660  -14.4640 C   0  0  0  0  0  0  0  0  0  0  0  0
   27.1830  -24.4100  -13.5030 O   0  0  0  0  0  0  0  0  0  0  0  0
   25.8580  -28.1520  -17.4060 C   0  0  0  0  0  0  0  0  0  0  0  0
   27.0330  -27.1360  -15.8620 C   0  0  0  0  0  3  0  0  0  0  0  0
   25.8370  -27.2130  -16.4490 N   0  0  0  0  0  0  0  0  0  0  0  0
   26.9820  -28.8550  -17.6110 N   0  0  0  0  0  2  0  0  0  0  0  0
   24.7430  -28.3930  -18.2020 N   0  0  0  0  0  0  0  0  0  0  0  0
   27.3620  -26.2220  -14.8220 N   0  0  0  0  0  0  0  0  0  0  0  0
   28.1460  -28.3150  -16.5030 S   0  0  0  0  0  0  0  0  0  0  0  0
   25.4610  -25.3420  -15.9360 H   0  0  0  0  0  0  0  0  0  0  0  0
   24.8310  -29.0370  -18.9780 H   0  0  0  0  0  0  0  0  0  0  0  0
   28.1890  -26.4580  -14.2910 H   0  0  0  0  0  0  0  0  0  0  0  0
   24.8440  -23.5530  -15.0030 C   0  0  0  0  0  3  0  0  0  0  0  0
   21.6570  -23.7710  -12.7080 C   0  0  0  0  0  3  0  0  0  0  0  0
   21.1490  -22.5130  -11.9850 C   0  0  0  0  0  2  0  0  0  0  0  0
   22.3900  -21.6730  -11.7760 C   0  0  0  0  0  3  0  0  0  0  0  0
   23.3080  -22.0270  -12.9460 C   0  0  0  0  0  2  0  0  0  0  0  0
   22.8720  -23.3440  -13.4310 N   0  0  0  0  0  0  0  0  0  0  0  0
   23.5660  -24.1130  -14.3100 C   0  0  0  0  0  0  0  0  0  0  0  0
   23.2340  -25.2800  -14.5520 O   0  0  0  0  0  0  0  0  0  0  0  0
   19.7490  -25.2610  -12.9940 N   0  0  0  0  0  0  0  0  0  0  0  0
   20.5270  -24.3450  -13.5790 C   0  0  0  0  0  0  0  0  0  0  0  0
   20.3340  -23.9230  -14.7210 O   0  0  0  0  0  0  0  0  0  0  0  0
   19.9900  -25.5610  -12.0590 H   0  0  0  0  0  0  0  0  0  0  0  0
   18.5130  -25.7910  -13.5540 C   0  0  0  0  0  2  0  0  0  0  0  0
   15.0430  -23.3060  -12.6990 C   0  0  0  0  0  0  0  0  0  0  0  0
   16.0390  -23.4930  -11.7180 C   0  0  0  0  0  3  0  0  0  0  0  0
   17.1620  -24.2920  -11.9930 C   0  0  0  0  0  3  0  0  0  0  0  0
   15.1850  -23.9230  -13.9600 C   0  0  0  0  0  3  0  0  0  0  0  0
   16.3110  -24.7240  -14.2340 C   0  0  0  0  0  3  0  0  0  0  0  0
   17.3050  -24.9140  -13.2520 C   0  0  0  0  0  0  0  0  0  0  0  0
   11.9790  -23.8120  -13.5780 C   0  0  0  0  0  1  0  0  0  0  0  0
   12.5610  -22.6950  -12.7330 C   0  0  0  0  0  0  0  0  0  0  0  0
   11.6880  -21.7720  -12.1940 N   0  0  0  0  0  0  0  0  0  0  0  0
   12.2400  -20.8520  -11.2080 C   0  0  0  0  0  2  0  0  0  0  0  0
   14.0310  -21.0830  -11.3820 S   0  0  0  0  0  0  0  0  0  0  0  0
   13.8380  -22.5300  -12.3620 C   0  0  0  0  0  0  0  0  0  0  0  0
   10.6790  -21.8370  -12.2940 H   0  0  0  0  0  0  0  0  0  0  0  0
   23.0300  -22.0310  -10.5610 O   0  0  0  0  0  0  0  0  0  0  0  0
   23.2620  -22.9540  -10.6040 H   0  0  0  0  0  0  0  0  0  0  0  0
   24.5580  -22.8680  -16.3920 C   0  0  1  0  0  0  0  0  0  0  0  0
   25.8620  -22.2160  -16.9030 C   0  0  0  0  0  1  0  0  0  0  0  0
   24.0620  -23.8560  -17.4750 C   0  0  0  0  0  1  0  0  0  0  0  0
   23.5130  -21.7370  -16.2650 C   0  0  0  0  0  1  0  0  0  0  0  0
   23.4030  -28.2260  -17.6370 C   0  0  0  0  0  2  0  0  0  0  0  0
   22.6340  -29.5150  -17.6500 C   0  0  0  0  0  0  0  0  0  0  0  0
   23.3220  -30.6690  -17.5270 N   0  0  0  0  0  4  0  0  0  0  0  0
   21.2920  -29.4910  -17.8030 N   0  0  0  0  0  0  0  0  0  0  0  0
   24.3270  -30.6340  -17.4450 H   0  0  0  0  0  0  0  0  0  0  0  0
   22.8820  -31.5620  -17.3710 H   0  0  0  0  0  0  0  0  0  0  0  0
   20.7650  -28.6270  -17.8260 H   0  0  0  0  0  0  0  0  0  0  0  0
   20.2300  -31.3520  -16.9070 C   0  0  0  0  0  0  0  0  0  0  0  0
   19.9020  -30.8060  -15.8490 O   0  0  0  0  0  0  0  0  0  0  0  0
   20.5990  -30.6800  -18.0030 N   0  0  0  0  0  0  0  0  0  0  0  0
   20.9370  -31.0960  -18.8590 H   0  0  0  0  0  0  0  0  0  0  0  0
   20.3110  -32.8790  -17.0150 C   0  0  0  0  0  2  0  0  0  0  0  0
   20.9840  -33.5570  -15.7950 C   0  0  0  0  0  3  0  0  0  0  0  0
   22.3280  -33.0070  -15.5790 N   0  0  0  0  0  0  0  0  0  0  0  0
   21.0610  -35.0690  -15.9190 C   0  0  0  0  0  0  0  0  0  0  0  0
   20.7900  -35.7970  -17.0090 N   0  0  0  0  0  0  0  0  0  0  0  0
   21.0770  -37.1030  -16.6670 N   0  0  0  0  0  0  0  0  0  0  0  0
   21.5140  -37.0600  -15.4040 C   0  0  0  0  0  0  0  0  0  0  0  0
   21.9930  -38.2690  -14.6590 C   0  0  0  0  0  1  0  0  0  0  0  0
   21.5000  -35.8130  -14.8860 N   0  0  0  0  0  0  0  0  0  0  0  0
   21.8360  -35.3430  -13.6020 C   0  0  0  0  0  0  0  0  0  0  0  0
   21.4440  -36.1410  -12.1120 S   0  0  0  0  0  0  0  0  0  0  0  0
   22.1000  -34.8220  -11.1850 C   0  0  0  0  0  0  0  0  0  0  0  0
   22.0690  -34.8900   -9.6910 C   0  0  0  0  0  1  0  0  0  0  0  0
   22.5790  -33.8090  -11.9880 C   0  0  0  0  0  0  0  0  0  0  0  0
   23.1360  -32.5270  -11.4230 C   0  0  0  0  0  1  0  0  0  0  0  0
   22.4580  -34.1310  -13.3890 C   0  0  0  0  0  0  0  0  0  0  0  0
   22.9670  -33.2450  -14.4920 C   0  0  0  0  0  0  0  0  0  0  0  0
   24.3020  -32.6240  -14.3330 C   0  0  0  0  0  0  0  0  0  0  0  0
   25.3840  -33.3890  -13.8410 C   0  0  0  0  0  3  0  0  0  0  0  0
   26.6470  -32.7930  -13.6650 C   0  0  0  0  0  3  0  0  0  0  0  0
   26.8320  -31.4320  -13.9770 C   0  0  0  0  0  0  0  0  0  0  0  0
   28.3770  -30.7000  -13.7590 Cl  0  0  0  0  0  0  0  0  0  0  0  0
   25.7570  -30.6690  -14.4680 C   0  0  0  0  0  3  0  0  0  0  0  0
   24.4940  -31.2630  -14.6510 C   0  0  0  0  0  3  0  0  0  0  0  0
  1 14  1  0
  1  2  1  0
  2  3  2  0
  4  6  2  0
  5  9  1  0
  6  5  1  0
  7  4  1  0
  7 10  1  0
  8 46  1  0
  8  4  1  0
  9  2  1  0
  9 13  1  0
 10  5  1  0
 11  1  1  0
 12  8  1  0
 14 20  1  0
 15 23  1  0
 15 16  1  0
 16 17  1  0
 17 40  1  0
 18 17  1  0
 19 18  1  0
 19 15  1  0
 20 19  1  0
 21 20  2  0
 22 25  1  0
 23 22  1  0
 24 23  2  0
 26 32  1  0
 26 22  1  0
 27 38  1  0
 27 28  1  0
 29 28  2  0
 30 27  2  0
 31 30  1  0
 31 32  2  0
 32 29  1  0
 33 34  1  0
 34 38  2  0
 34 35  1  0
 35 36  1  0
 37 36  1  0
 38 37  1  0
 39 35  1  0
 41 40  1  0
 42 45  1  1
 42 14  1  0
 43 42  1  0
 44 42  1  0
 47 46  1  0
 47 48  2  0
 48 50  1  0
 48 51  1  0
 49 47  1  0
 52 49  1  0
 53 54  2  0
 55 49  1  0
 55 53  1  0
 56 55  1  0
 57 53  1  0
 58 57  1  0
 58 59  1  0
 59 73  2  0
 60 58  1  0
 60 65  1  0
 61 62  1  0
 61 60  2  0
 62 63  2  0
 63 65  1  0
 63 64  1  0
 65 66  1  0
 66 72  2  0
 66 67  1  0
 67 68  1  0
 68 69  1  0
 70 71  1  0
 70 68  2  0
 72 70  1  0
 73 74  1  0
 73 72  1  0
 74 75  1  0
 75 76  2  0
 77 78  1  0
 77 76  1  0
 79 77  2  0
 80 79  1  0
 80 74  2  0
M  ISO  4   2 101   9 101  53 100  55 100
M  END
>  <TORSDO>  (15) 
F 14

>  <SCORE>  (15) 
-12.890

>  <name>  (15) 
14

>  <ligand_id>  (15) 
14

>  <original_smiles>  (15) 
[H]OC1([H])C([H])([H])N(C(=O)C([H])(N([H])C(=O)N([H])c2nc(N([H])C([H])([H])C(N([H])[H])=[N+]([H])N([H])C(=O)C([H])([H])C3([H])N=C(c4c([H])c([H])c(Cl)c([H])c4[H])c4c(sc(C([H])([H])[H])c4C([H])([H])[H])-n4c(C([H])([H])[H])nnc43)ns2)C(C([H])([H])[H])(C([H])([H])[H])C([H])([H])[H])C([H])(C(=O)N([H])C([H])([H])c2c([H])c([H])c(C3=C(C([H])([H])[H])N([H])C([H])([H])S3)c([H])c2[H])C1([H])[H]

>  <smiles>  (15) 
[H]OC1([H])C([H])([H])N(C(=O)C([H])(N([H])C(=O)N([H])c2nc(N([H])C([H])([H])C(N([H])[H])=[N+]([H])N([H])C(=O)C([H])([H])C3([H])N=C(c4c([H])c([H])c(Cl)c([H])c4[H])c4c(sc(C([H])([H])[H])c4C([H])([H])[H])-n4c(C([H])([H])[H])nnc43)ns2)C(C([H])([H])[H])(C([H])([H])[H])C([H])([H])[H])C([H])(C(=O)N([H])C([H])([H])c2c([H])c([H])c(C3=C(C([H])([H])[H])N([H])C([H])([H])S3)c([H])c2[H])C1([H])[H]

$$$$
15:0:0
     RDKit          3D

 80 86  0  0  1  0  0  0  0  0999 V2000
   27.1650  -27.0690  -17.2640 C   0  0  0  0  0  3  0  0  0  0  0  0
   25.0540  -28.0430  -18.0570 C   0  0  0  0  0  0  0  0  0  0  0  0
   27.8580  -27.0570  -18.6010 C   0  0  0  0  0  1  0  0  0  0  0  0
   25.2500  -27.8930  -19.3790 N   0  0  0  0  0  4  0  0  0  0  0  0
   25.9170  -27.6010  -17.0900 N   0  0  0  0  0  0  0  0  0  0  0  0
   27.8940  -26.5220  -16.2500 N   0  0  0  0  0  0  0  0  0  0  0  0
   23.8860  -28.6620  -17.7470 N   0  0  0  0  0  0  0  0  0  0  0  0
   26.0270  -27.4130  -19.7980 H   0  0  0  0  0  0  0  0  0  0  0  0
   24.5060  -28.2310  -19.9730 H   0  0  0  0  0  0  0  0  0  0  0  0
   25.6010  -27.6780  -16.1380 H   0  0  0  0  0  0  0  0  0  0  0  0
   28.8150  -26.1460  -16.4550 H   0  0  0  0  0  0  0  0  0  0  0  0
   23.5250  -28.8120  -16.8130 H   0  0  0  0  0  0  0  0  0  0  0  0
   26.0320  -24.7640  -15.3480 N   0  0  0  0  0  0  0  0  0  0  0  0
   27.0210  -25.1810  -14.5560 C   0  0  0  0  0  0  0  0  0  0  0  0
   27.4150  -24.5560  -13.5670 O   0  0  0  0  0  0  0  0  0  0  0  0
   27.4700  -26.3980  -14.9100 N   0  0  0  0  0  0  0  0  0  0  0  0
   25.7720  -25.3490  -16.1190 H   0  0  0  0  0  0  0  0  0  0  0  0
   28.2090  -26.8060  -14.3500 H   0  0  0  0  0  0  0  0  0  0  0  0
   25.0960  -23.6690  -15.1180 C   0  0  0  0  0  3  0  0  0  0  0  0
   21.9320  -24.0040  -12.8020 C   0  0  0  0  0  3  0  0  0  0  0  0
   21.4310  -22.7800  -12.0190 C   0  0  0  0  0  2  0  0  0  0  0  0
   22.6730  -21.9470  -11.7850 C   0  0  0  0  0  3  0  0  0  0  0  0
   23.5800  -22.2480  -12.9780 C   0  0  0  0  0  2  0  0  0  0  0  0
   23.1400  -23.5410  -13.5160 N   0  0  0  0  0  0  0  0  0  0  0  0
   23.8280  -24.2670  -14.4340 C   0  0  0  0  0  0  0  0  0  0  0  0
   23.5040  -25.4270  -14.7220 O   0  0  0  0  0  0  0  0  0  0  0  0
   20.0120  -25.4700  -13.1330 N   0  0  0  0  0  0  0  0  0  0  0  0
   20.7950  -24.5390  -13.6880 C   0  0  0  0  0  0  0  0  0  0  0  0
   20.6000  -24.0780  -14.8140 O   0  0  0  0  0  0  0  0  0  0  0  0
   20.2550  -25.8050  -12.2110 H   0  0  0  0  0  0  0  0  0  0  0  0
   18.7690  -25.9720  -13.7050 C   0  0  0  0  0  2  0  0  0  0  0  0
   15.3340  -23.4520  -12.8130 C   0  0  0  0  0  0  0  0  0  0  0  0
   16.3430  -23.6410  -11.8460 C   0  0  0  0  0  3  0  0  0  0  0  0
   17.4540  -24.4520  -12.1310 C   0  0  0  0  0  3  0  0  0  0  0  0
   15.4520  -24.0780  -14.0720 C   0  0  0  0  0  3  0  0  0  0  0  0
   16.5680  -24.8880  -14.3570 C   0  0  0  0  0  3  0  0  0  0  0  0
   17.5750  -25.0820  -13.3900 C   0  0  0  0  0  0  0  0  0  0  0  0
   12.2450  -23.9790  -13.5820 C   0  0  0  0  0  1  0  0  0  0  0  0
   12.8520  -22.8380  -12.7900 C   0  0  0  0  0  0  0  0  0  0  0  0
   11.9970  -21.8970  -12.2530 N   0  0  0  0  0  0  0  0  0  0  0  0
   12.5810  -20.9490  -11.3110 C   0  0  0  0  0  2  0  0  0  0  0  0
   14.3640  -21.1890  -11.5330 S   0  0  0  0  0  0  0  0  0  0  0  0
   14.1400  -22.6630  -12.4630 C   0  0  0  0  0  0  0  0  0  0  0  0
   10.9860  -21.9610  -12.3220 H   0  0  0  0  0  0  0  0  0  0  0  0
   23.3250  -22.3580  -10.5940 O   0  0  0  0  0  0  0  0  0  0  0  0
   23.5480  -23.2810  -10.6750 H   0  0  0  0  0  0  0  0  0  0  0  0
   24.8090  -23.0210  -16.5230 C   0  0  1  0  0  0  0  0  0  0  0  0
   26.1110  -22.3660  -17.0410 C   0  0  0  0  0  1  0  0  0  0  0  0
   24.3310  -24.0390  -17.5880 C   0  0  0  0  0  1  0  0  0  0  0  0
   23.7510  -21.9010  -16.4290 C   0  0  0  0  0  1  0  0  0  0  0  0
   23.0560  -29.0750  -18.7930 O   0  0  0  0  0  0  0  0  0  0  0  0
   22.3300  -30.2640  -18.4740 C   0  0  0  0  0  2  0  0  0  0  0  0
   20.5080  -30.8500  -16.8470 C   0  0  0  0  0  0  0  0  0  0  0  0
   19.8900  -30.4360  -15.8680 O   0  0  0  0  0  0  0  0  0  0  0  0
   21.2240  -29.9750  -17.5710 N   0  0  0  0  0  0  0  0  0  0  0  0
   21.0530  -28.9980  -17.3780 H   0  0  0  0  0  0  0  0  0  0  0  0
   20.5330  -32.3620  -17.1500 C   0  0  0  0  0  2  0  0  0  0  0  0
   21.1400  -33.1710  -15.9740 C   0  0  0  0  0  3  0  0  0  0  0  0
   22.4880  -32.6640  -15.7150 N   0  0  0  0  0  0  0  0  0  0  0  0
   21.1920  -34.6760  -16.1860 C   0  0  0  0  0  0  0  0  0  0  0  0
   20.8990  -35.3380  -17.3120 N   0  0  0  0  0  0  0  0  0  0  0  0
   21.1800  -36.6660  -17.0490 N   0  0  0  0  0  0  0  0  0  0  0  0
   21.6280  -36.7010  -15.7900 C   0  0  0  0  0  0  0  0  0  0  0  0
   22.1080  -37.9530  -15.1210 C   0  0  0  0  0  1  0  0  0  0  0  0
   21.6260  -35.4870  -15.1990 N   0  0  0  0  0  0  0  0  0  0  0  0
   21.9760  -35.1020  -13.8880 C   0  0  0  0  0  0  0  0  0  0  0  0
   21.5960  -35.9880  -12.4460 S   0  0  0  0  0  0  0  0  0  0  0  0
   22.2680  -34.7330  -11.4440 C   0  0  0  0  0  0  0  0  0  0  0  0
   22.2520  -34.8910   -9.9570 C   0  0  0  0  0  1  0  0  0  0  0  0
   22.7440  -33.6750  -12.1890 C   0  0  0  0  0  0  0  0  0  0  0  0
   23.3130  -32.4300  -11.5550 C   0  0  0  0  0  1  0  0  0  0  0  0
   22.6110  -33.9130  -13.6040 C   0  0  0  0  0  0  0  0  0  0  0  0
   23.1250  -32.9700  -14.6490 C   0  0  0  0  0  0  0  0  0  0  0  0
   24.4600  -32.3650  -14.4690 C   0  0  0  0  0  0  0  0  0  0  0  0
   25.5410  -33.1610  -14.0300 C   0  0  0  0  0  3  0  0  0  0  0  0
   26.8080  -32.5820  -13.8330 C   0  0  0  0  0  3  0  0  0  0  0  0
   26.9990  -31.2090  -14.0730 C   0  0  0  0  0  0  0  0  0  0  0  0
   28.5480  -30.4950  -13.8280 Cl  0  0  0  0  0  0  0  0  0  0  0  0
   25.9250  -30.4120  -14.5090 C   0  0  0  0  0  3  0  0  0  0  0  0
   24.6560  -30.9890  -14.7130 C   0  0  0  0  0  3  0  0  0  0  0  0
  1  3  1  0
  1  5  1  0
  1  6  1  0
  2  7  1  0
  2  5  1  0
  4  2  2  0
  5 10  1  0
  6 16  1  0
  7 12  1  0
  8  4  1  0
  9  4  1  0
 11  6  1  0
 13 19  1  0
 13 14  1  0
 14 15  2  0
 16 14  1  0
 16 18  1  0
 17 13  1  0
 19 25  1  0
 20 28  1  0
 20 21  1  0
 21 22  1  0
 22 45  1  0
 23 22  1  0
 24 23  1  0
 24 20  1  0
 25 24  1  0
 26 25  2  0
 27 30  1  0
 28 27  1  0
 29 28  2  0
 31 37  1  0
 31 27  1  0
 32 43  1  0
 32 33  1  0
 34 33  2  0
 35 32  2  0
 36 35  1  0
 36 37  2  0
 37 34  1  0
 38 39  1  0
 39 43  2  0
 39 40  1  0
 40 41  1  0
 42 41  1  0
 43 42  1  0
 44 40  1  0
 46 45  1  0
 47 50  1  1
 47 19  1  0
 48 47  1  0
 49 47  1  0
 51 52  1  0
 51  7  1  0
 52 55  1  0
 53 54  2  0
 55 56  1  0
 55 53  1  0
 57 53  1  0
 58 57  1  0
 58 59  1  0
 59 73  2  0
 60 58  1  0
 60 65  1  0
 61 62  1  0
 61 60  2  0
 62 63  2  0
 63 65  1  0
 63 64  1  0
 65 66  1  0
 66 72  2  0
 66 67  1  0
 67 68  1  0
 68 69  1  0
 70 71  1  0
 70 68  2  0
 72 70  1  0
 73 74  1  0
 73 72  1  0
 74 75  1  0
 75 76  2  0
 77 76  1  0
 77 78  1  0
 79 77  2  0
 80 79  1  0
 80 74  2  0
M  ISO  4  14 101  16 101  53 100  55 100
M  END
>  <TORSDO>  (16) 
F 15

>  <SCORE>  (16) 
-13.736

>  <name>  (16) 
15

>  <ligand_id>  (16) 
15

>  <original_smiles>  (16) 
[H]OC1([H])C([H])([H])N(C(=O)C([H])(N([H])C(=O)N([H])[N+]([H])=C(N([H])C(N([H])[H])=[N+]([H])OC([H])([H])N([H])C(=O)C([H])([H])C2([H])N=C(c3c([H])c([H])c(Cl)c([H])c3[H])c3c(sc(C([H])([H])[H])c3C([H])([H])[H])-n3c(C([H])([H])[H])nnc32)C([H])([H])[H])C(C([H])([H])[H])(C([H])([H])[H])C([H])([H])[H])C([H])(C(=O)N([H])C([H])([H])c2c([H])c([H])c(C3=C(C([H])([H])[H])N([H])C([H])([H])S3)c([H])c2[H])C1([H])[H]

>  <smiles>  (16) 
[H]OC1([H])C([H])([H])N(C(=O)C([H])(N([H])C(=O)N([H])[N+]([H])=C(N([H])C(N([H])[H])=[N+]([H])OC([H])([H])N([H])C(=O)C([H])([H])C2([H])N=C(c3c([H])c([H])c(Cl)c([H])c3[H])c3c(sc(C([H])([H])[H])c3C([H])([H])[H])-n3c(C([H])([H])[H])nnc32)C([H])([H])[H])C(C([H])([H])[H])(C([H])([H])[H])C([H])([H])[H])C([H])(C(=O)N([H])C([H])([H])c2c([H])c([H])c(C3=C(C([H])([H])[H])N([H])C([H])([H])S3)c([H])c2[H])C1([H])[H]

$$$$
16:0:0
     RDKit          3D

 82 88  0  0  1  0  0  0  0  0999 V2000
   25.7680  -24.3270  -15.3220 N   0  0  0  0  0  0  0  0  0  0  0  0
   26.7030  -25.0360  -14.7160 C   0  0  0  0  0  0  0  0  0  0  0  0
   27.3590  -24.6540  -13.7310 O   0  0  0  0  0  0  0  0  0  0  0  0
   23.1130  -29.3380  -18.2690 C   0  0  0  0  0  0  0  0  0  0  0  0
   25.9690  -26.8760  -16.2510 C   0  0  0  0  0  0  0  0  0  0  0  0
   25.4870  -28.4240  -18.2160 C   0  0  0  0  0  0  0  0  0  0  0  0
   27.8320  -27.6620  -17.6940 C   0  0  0  0  0  1  0  0  0  0  0  0
   23.0620  -29.7480  -19.5550 N   0  0  0  0  0  4  0  0  0  0  0  0
   24.1860  -28.7470  -17.6860 N   0  0  0  0  0  0  0  0  0  0  0  0
   26.8970  -26.2860  -15.4110 N   0  0  0  0  0  0  0  0  0  0  0  0
   26.3880  -27.6490  -17.3230 N   0  0  0  0  0  0  0  0  0  0  0  0
   24.6310  -26.6760  -16.0400 N   0  0  0  0  0  4  0  0  0  0  0  0
   21.9980  -29.5040  -17.5120 N   0  0  0  0  0  0  0  0  0  0  0  0
   25.8420  -28.8360  -19.3320 O   0  0  0  0  0  0  0  0  0  0  0  0
   25.4440  -24.7220  -16.1910 H   0  0  0  0  0  0  0  0  0  0  0  0
   23.8620  -29.6620  -20.1720 H   0  0  0  0  0  0  0  0  0  0  0  0
   22.1720  -29.9010  -20.0070 H   0  0  0  0  0  0  0  0  0  0  0  0
   23.9970  -28.4140  -16.7550 H   0  0  0  0  0  0  0  0  0  0  0  0
   27.7110  -26.8530  -15.2330 H   0  0  0  0  0  0  0  0  0  0  0  0
   24.2560  -26.2700  -15.1670 H   0  0  0  0  0  0  0  0  0  0  0  0
   24.0020  -26.4960  -16.8140 H   0  0  0  0  0  0  0  0  0  0  0  0
   21.9060  -29.1990  -16.5500 H   0  0  0  0  0  0  0  0  0  0  0  0
   20.2920  -30.9550  -17.0300 C   0  0  0  0  0  0  0  0  0  0  0  0
   19.9040  -30.4510  -15.9690 O   0  0  0  0  0  0  0  0  0  0  0  0
   20.9350  -30.2730  -17.9890 N   0  0  0  0  0  0  0  0  0  0  0  0
   21.3330  -30.7860  -18.7630 H   0  0  0  0  0  0  0  0  0  0  0  0
   20.2450  -32.4660  -17.2480 C   0  0  0  0  0  2  0  0  0  0  0  0
   20.9390  -33.2420  -16.1010 C   0  0  0  0  0  3  0  0  0  0  0  0
   22.2950  -32.7260  -15.8810 N   0  0  0  0  0  0  0  0  0  0  0  0
   20.9930  -34.7380  -16.3290 C   0  0  0  0  0  0  0  0  0  0  0  0
   20.6800  -35.3900  -17.4580 N   0  0  0  0  0  0  0  0  0  0  0  0
   20.9660  -36.7200  -17.2090 N   0  0  0  0  0  0  0  0  0  0  0  0
   21.4490  -36.7610  -15.9620 C   0  0  0  0  0  0  0  0  0  0  0  0
   21.9590  -38.0100  -15.3090 C   0  0  0  0  0  1  0  0  0  0  0  0
   21.4560  -35.5540  -15.3630 N   0  0  0  0  0  0  0  0  0  0  0  0
   21.8330  -35.1750  -14.0590 C   0  0  0  0  0  0  0  0  0  0  0  0
   21.4850  -36.0720  -12.6220 S   0  0  0  0  0  0  0  0  0  0  0  0
   22.1810  -34.8310  -11.6230 C   0  0  0  0  0  0  0  0  0  0  0  0
   22.2090  -35.0110  -10.1400 C   0  0  0  0  0  1  0  0  0  0  0  0
   22.6410  -33.7650  -12.3660 C   0  0  0  0  0  0  0  0  0  0  0  0
   23.2170  -32.5270  -11.7220 C   0  0  0  0  0  1  0  0  0  0  0  0
   22.4750  -33.9870  -13.7800 C   0  0  0  0  0  0  0  0  0  0  0  0
   22.9610  -33.0370  -14.8320 C   0  0  0  0  0  0  0  0  0  0  0  0
   24.2990  -32.4350  -14.6750 C   0  0  0  0  0  0  0  0  0  0  0  0
   25.3940  -33.2240  -14.2610 C   0  0  0  0  0  3  0  0  0  0  0  0
   26.6580  -32.6320  -14.0860 C   0  0  0  0  0  3  0  0  0  0  0  0
   26.8340  -31.2580  -14.3250 C   0  0  0  0  0  0  0  0  0  0  0  0
   28.3840  -30.5330  -14.1130 Cl  0  0  0  0  0  0  0  0  0  0  0  0
   25.7400  -30.4690  -14.7300 C   0  0  0  0  0  3  0  0  0  0  0  0
   24.4770  -31.0570  -14.9090 C   0  0  0  0  0  3  0  0  0  0  0  0
   24.8810  -23.2900  -14.8460 C   0  0  0  0  0  3  0  0  0  0  0  0
   21.7770  -23.7980  -12.4840 C   0  0  0  0  0  3  0  0  0  0  0  0
   21.2180  -22.5860  -11.7210 C   0  0  0  0  0  2  0  0  0  0  0  0
   22.4190  -21.6880  -11.5120 C   0  0  0  0  0  3  0  0  0  0  0  0
   23.3250  -21.9590  -12.7090 C   0  0  0  0  0  2  0  0  0  0  0  0
   22.9470  -23.2790  -13.2170 N   0  0  0  0  0  0  0  0  0  0  0  0
   23.6710  -23.9710  -14.1260 C   0  0  0  0  0  0  0  0  0  0  0  0
   23.4280  -25.1560  -14.3720 O   0  0  0  0  0  0  0  0  0  0  0  0
   19.9090  -25.3400  -12.7560 N   0  0  0  0  0  0  0  0  0  0  0  0
   20.6630  -24.4120  -13.3530 C   0  0  0  0  0  0  0  0  0  0  0  0
   20.4670  -24.0150  -14.5010 O   0  0  0  0  0  0  0  0  0  0  0  0
   20.1650  -25.6310  -11.8220 H   0  0  0  0  0  0  0  0  0  0  0  0
   18.6840  -25.9040  -13.3040 C   0  0  0  0  0  2  0  0  0  0  0  0
   15.2060  -23.3590  -12.6940 C   0  0  0  0  0  0  0  0  0  0  0  0
   16.1880  -23.4670  -11.6880 C   0  0  0  0  0  3  0  0  0  0  0  0
   17.3130  -24.2870  -11.8850 C   0  0  0  0  0  3  0  0  0  0  0  0
   15.3620  -24.0740  -13.9000 C   0  0  0  0  0  3  0  0  0  0  0  0
   16.4910  -24.8920  -14.0950 C   0  0  0  0  0  3  0  0  0  0  0  0
   17.4730  -25.0050  -13.0890 C   0  0  0  0  0  0  0  0  0  0  0  0
   12.1460  -23.9490  -13.5420 C   0  0  0  0  0  1  0  0  0  0  0  0
   12.7200  -22.7610  -12.7970 C   0  0  0  0  0  0  0  0  0  0  0  0
   11.8430  -21.7960  -12.3450 N   0  0  0  0  0  0  0  0  0  0  0  0
   12.3890  -20.7890  -11.4420 C   0  0  0  0  0  2  0  0  0  0  0  0
   14.1800  -21.0330  -11.5840 S   0  0  0  0  0  0  0  0  0  0  0  0
   13.9950  -22.5580  -12.4350 C   0  0  0  0  0  0  0  0  0  0  0  0
   10.8370  -21.8700  -12.4470 H   0  0  0  0  0  0  0  0  0  0  0  0
   23.1070  -22.0590  -10.3300 O   0  0  0  0  0  0  0  0  0  0  0  0
   23.3660  -22.9750  -10.3950 H   0  0  0  0  0  0  0  0  0  0  0  0
   24.4920  -22.4670  -16.1300 C   0  0  1  0  0  0  0  0  0  0  0  0
   25.7580  -21.7670  -16.6860 C   0  0  0  0  0  1  0  0  0  0  0  0
   23.8950  -23.3290  -17.2750 C   0  0  0  0  0  1  0  0  0  0  0  0
   23.4790  -21.3530  -15.7970 C   0  0  0  0  0  1  0  0  0  0  0  0
  1 51  1  0
  1  2  1  0
  2  3  2  0
  4  9  1  0
  4 13  1  0
  5 12  2  0
  5 10  1  0
  6  9  1  0
  6 11  1  0
  7 11  1  0
  8  4  2  0
  9 18  1  0
 10 19  1  0
 10  2  1  0
 11  5  1  0
 12 20  1  0
 13 22  1  0
 14  6  2  0
 15  1  1  0
 16  8  1  0
 17  8  1  0
 21 12  1  0
 23 24  2  0
 25 13  1  0
 25 23  1  0
 26 25  1  0
 27 23  1  0
 28 27  1  0
 28 29  1  0
 29 43  2  0
 30 28  1  0
 30 35  1  0
 31 32  1  0
 31 30  2  0
 32 33  2  0
 33 35  1  0
 33 34  1  0
 35 36  1  0
 36 42  2  0
 36 37  1  0
 37 38  1  0
 38 39  1  0
 40 41  1  0
 40 38  2  0
 42 40  1  0
 43 44  1  0
 43 42  1  0
 44 45  1  0
 45 46  2  0
 47 48  1  0
 47 46  1  0
 49 47  2  0
 50 49  1  0
 50 44  2  0
 51 57  1  0
 52 60  1  0
 52 53  1  0
 53 54  1  0
 54 77  1  0
 55 54  1  0
 56 55  1  0
 56 52  1  0
 57 56  1  0
 58 57  2  0
 59 62  1  0
 60 59  1  0
 61 60  2  0
 63 69  1  0
 63 59  1  0
 64 75  1  0
 64 65  1  0
 66 65  2  0
 67 64  2  0
 68 67  1  0
 68 69  2  0
 69 66  1  0
 70 71  1  0
 71 75  2  0
 71 72  1  0
 72 73  1  0
 74 73  1  0
 75 74  1  0
 76 72  1  0
 78 77  1  0
 79 82  1  1
 79 51  1  0
 80 79  1  0
 81 79  1  0
M  ISO  4   2 101  10 101  23 100  25 100
M  END
>  <TORSDO>  (17) 
F 12

>  <SCORE>  (17) 
-11.358

>  <name>  (17) 
16

>  <ligand_id>  (17) 
16

>  <original_smiles>  (17) 
[H]OC1([H])C([H])([H])N(C(=O)C([H])(N([H])C(=O)N([H])C(N(C(=O)N([H])C(N([H])[H])=[N+]([H])N([H])C(=O)C([H])([H])C2([H])N=C(c3c([H])c([H])c(Cl)c([H])c3[H])c3c(sc(C([H])([H])[H])c3C([H])([H])[H])-n3c(C([H])([H])[H])nnc32)C([H])([H])[H])=[N+]([H])[H])C(C([H])([H])[H])(C([H])([H])[H])C([H])([H])[H])C([H])(C(=O)N([H])C([H])([H])c2c([H])c([H])c(C3=C(C([H])([H])[H])N([H])C([H])([H])S3)c([H])c2[H])C1([H])[H]

>  <smiles>  (17) 
[H]OC1([H])C([H])([H])N(C(=O)C([H])(N([H])C(=O)N([H])C(N(C(=O)N([H])C(N([H])[H])=[N+]([H])N([H])C(=O)C([H])([H])C2([H])N=C(c3c([H])c([H])c(Cl)c([H])c3[H])c3c(sc(C([H])([H])[H])c3C([H])([H])[H])-n3c(C([H])([H])[H])nnc32)C([H])([H])[H])=[N+]([H])[H])C(C([H])([H])[H])(C([H])([H])[H])C([H])([H])[H])C([H])(C(=O)N([H])C([H])([H])c2c([H])c([H])c(C3=C(C([H])([H])[H])N([H])C([H])([H])S3)c([H])c2[H])C1([H])[H]

$$$$
17:0:0
     RDKit          3D

 79 85  0  0  1  0  0  0  0  0999 V2000
   25.6930  -27.6450  -16.5810 C   0  0  0  0  0  0  0  0  0  0  0  0
   25.9710  -27.4480  -15.2830 N   0  0  0  0  0  0  0  0  0  0  0  0
   24.6160  -28.4190  -16.7940 N   0  0  0  0  0  0  0  0  0  0  0  0
   26.3470  -27.1260  -17.4880 O   0  0  0  0  0  0  0  0  0  0  0  0
   25.4100  -27.7960  -14.5160 H   0  0  0  0  0  0  0  0  0  0  0  0
   23.9140  -28.6490  -16.1070 H   0  0  0  0  0  0  0  0  0  0  0  0
   26.0690  -24.8030  -15.3600 N   0  0  0  0  0  0  0  0  0  0  0  0
   26.9810  -25.3540  -14.5700 C   0  0  0  0  0  0  0  0  0  0  0  0
   27.5700  -24.7490  -13.6710 O   0  0  0  0  0  0  0  0  0  0  0  0
   27.0980  -26.6730  -14.8080 N   0  0  0  0  0  0  0  0  0  0  0  0
   25.7100  -25.4250  -16.0650 H   0  0  0  0  0  0  0  0  0  0  0  0
   27.7520  -27.2470  -14.2920 H   0  0  0  0  0  0  0  0  0  0  0  0
   25.2120  -23.6620  -15.0870 C   0  0  0  0  0  3  0  0  0  0  0  0
   21.9960  -23.9110  -12.8340 C   0  0  0  0  0  3  0  0  0  0  0  0
   21.5120  -22.6720  -12.0640 C   0  0  0  0  0  2  0  0  0  0  0  0
   22.7720  -21.8730  -11.8050 C   0  0  0  0  0  3  0  0  0  0  0  0
   23.6950  -22.2010  -12.9780 C   0  0  0  0  0  2  0  0  0  0  0  0
   23.2300  -23.4820  -13.5230 N   0  0  0  0  0  0  0  0  0  0  0  0
   23.9140  -24.2270  -14.4280 C   0  0  0  0  0  0  0  0  0  0  0  0
   23.5620  -25.3780  -14.7200 O   0  0  0  0  0  0  0  0  0  0  0  0
   20.0740  -25.3620  -13.2170 N   0  0  0  0  0  0  0  0  0  0  0  0
   20.8640  -24.4200  -13.7410 C   0  0  0  0  0  0  0  0  0  0  0  0
   20.6780  -23.9270  -14.8560 O   0  0  0  0  0  0  0  0  0  0  0  0
   20.3090  -25.7220  -12.3020 H   0  0  0  0  0  0  0  0  0  0  0  0
   18.8340  -25.8450  -13.8110 C   0  0  0  0  0  2  0  0  0  0  0  0
   15.3860  -23.3860  -12.8010 C   0  0  0  0  0  0  0  0  0  0  0  0
   16.4070  -23.6000  -11.8520 C   0  0  0  0  0  3  0  0  0  0  0  0
   17.5240  -24.3890  -12.1760 C   0  0  0  0  0  3  0  0  0  0  0  0
   15.4970  -23.9690  -14.0820 C   0  0  0  0  0  3  0  0  0  0  0  0
   16.6160  -24.7590  -14.4050 C   0  0  0  0  0  3  0  0  0  0  0  0
   17.6350  -24.9760  -13.4550 C   0  0  0  0  0  0  0  0  0  0  0  0
   12.2920  -23.9290  -13.5360 C   0  0  0  0  0  1  0  0  0  0  0  0
   12.8980  -22.8020  -12.7240 C   0  0  0  0  0  0  0  0  0  0  0  0
   12.0420  -21.8850  -12.1500 N   0  0  0  0  0  0  0  0  0  0  0  0
   12.6290  -20.9550  -11.1930 C   0  0  0  0  0  2  0  0  0  0  0  0
   14.4110  -21.1680  -11.4500 S   0  0  0  0  0  0  0  0  0  0  0  0
   14.1890  -22.6210  -12.4130 C   0  0  0  0  0  0  0  0  0  0  0  0
   11.0300  -21.9600  -12.2040 H   0  0  0  0  0  0  0  0  0  0  0  0
   23.3870  -22.3020  -10.6000 O   0  0  0  0  0  0  0  0  0  0  0  0
   23.5900  -23.2290  -10.6770 H   0  0  0  0  0  0  0  0  0  0  0  0
   24.9610  -22.9390  -16.4580 C   0  0  1  0  0  0  0  0  0  0  0  0
   26.2920  -22.3150  -16.9390 C   0  0  0  0  0  1  0  0  0  0  0  0
   24.4480  -23.8870  -17.5730 C   0  0  0  0  0  1  0  0  0  0  0  0
   23.9480  -21.7850  -16.3130 C   0  0  0  0  0  1  0  0  0  0  0  0
   23.0760  -29.1070  -18.5740 C   0  0  0  0  0  0  0  0  0  0  0  0
   22.5030  -28.7710  -19.7390 N   0  0  0  0  0  4  0  0  0  0  0  0
   24.0410  -28.2940  -18.0630 N   0  0  0  0  0  0  0  0  0  0  0  0
   21.7700  -29.3500  -20.1260 H   0  0  0  0  0  0  0  0  0  0  0  0
   22.7460  -27.9410  -20.2610 H   0  0  0  0  0  0  0  0  0  0  0  0
   24.4680  -27.5660  -18.6250 H   0  0  0  0  0  0  0  0  0  0  0  0
   22.5640  -30.3720  -17.9230 C   0  0  0  0  0  2  0  0  0  0  0  0
   20.4500  -31.0900  -16.7940 C   0  0  0  0  0  0  0  0  0  0  0  0
   19.7790  -30.7010  -15.8420 O   0  0  0  0  0  0  0  0  0  0  0  0
   21.1860  -30.1890  -17.4690 N   0  0  0  0  0  0  0  0  0  0  0  0
   20.9520  -29.2240  -17.2940 H   0  0  0  0  0  0  0  0  0  0  0  0
   20.4900  -32.5980  -17.1290 C   0  0  0  0  0  2  0  0  0  0  0  0
   21.0000  -33.4390  -15.9290 C   0  0  0  0  0  3  0  0  0  0  0  0
   22.3300  -32.9440  -15.5790 N   0  0  0  0  0  0  0  0  0  0  0  0
   21.0570  -34.9420  -16.1610 C   0  0  0  0  0  0  0  0  0  0  0  0
   20.8250  -35.5880  -17.3100 N   0  0  0  0  0  0  0  0  0  0  0  0
   21.0880  -36.9220  -17.0510 N   0  0  0  0  0  0  0  0  0  0  0  0
   21.4620  -36.9770  -15.7680 C   0  0  0  0  0  0  0  0  0  0  0  0
   21.9010  -38.2410  -15.0920 C   0  0  0  0  0  1  0  0  0  0  0  0
   21.4300  -35.7700  -15.1620 N   0  0  0  0  0  0  0  0  0  0  0  0
   21.7030  -35.4070  -13.8270 C   0  0  0  0  0  0  0  0  0  0  0  0
   21.2380  -36.3140  -12.4230 S   0  0  0  0  0  0  0  0  0  0  0  0
   21.8570  -35.0770  -11.3640 C   0  0  0  0  0  0  0  0  0  0  0  0
   21.7550  -35.2570   -9.8840 C   0  0  0  0  0  1  0  0  0  0  0  0
   22.3760  -34.0090  -12.0630 C   0  0  0  0  0  0  0  0  0  0  0  0
   22.9100  -32.7750  -11.3800 C   0  0  0  0  0  1  0  0  0  0  0  0
   22.3240  -34.2250  -13.4870 C   0  0  0  0  0  0  0  0  0  0  0  0
   22.9000  -33.2690  -14.4830 C   0  0  0  0  0  0  0  0  0  0  0  0
   24.2250  -32.6750  -14.2150 C   0  0  0  0  0  0  0  0  0  0  0  0
   25.2750  -33.4820  -13.7280 C   0  0  0  0  0  3  0  0  0  0  0  0
   26.5320  -32.9140  -13.4510 C   0  0  0  0  0  3  0  0  0  0  0  0
   26.7440  -31.5410  -13.6660 C   0  0  0  0  0  0  0  0  0  0  0  0
   28.2760  -30.8290  -13.3280 Cl  0  0  0  0  0  0  0  0  0  0  0  0
   25.7010  -30.7390  -14.1520 C   0  0  0  0  0  3  0  0  0  0  0  0
   24.4400  -31.2960  -14.4240 C   0  0  0  0  0  3  0  0  0  0  0  0
  1  2  1  0
  2 10  1  0
  2  5  1  0
  3  1  1  0
  3  6  1  0
  4  1  2  0
  7 13  1  0
  7  8  1  0
  8  9  2  0
 10  8  1  0
 10 12  1  0
 11  7  1  0
 13 19  1  0
 14 22  1  0
 14 15  1  0
 15 16  1  0
 16 39  1  0
 17 16  1  0
 18 17  1  0
 18 14  1  0
 19 18  1  0
 20 19  2  0
 21 24  1  0
 22 21  1  0
 23 22  2  0
 25 31  1  0
 25 21  1  0
 26 37  1  0
 26 27  1  0
 28 27  2  0
 29 26  2  0
 30 29  1  0
 30 31  2  0
 31 28  1  0
 32 33  1  0
 33 37  2  0
 33 34  1  0
 34 35  1  0
 36 35  1  0
 37 36  1  0
 38 34  1  0
 40 39  1  0
 41 44  1  1
 41 13  1  0
 42 41  1  0
 43 41  1  0
 45 47  1  0
 45 51  1  0
 46 45  2  0
 47  3  1  0
 48 46  1  0
 49 46  1  0
 50 47  1  0
 51 54  1  0
 52 53  2  0
 54 55  1  0
 54 52  1  0
 56 52  1  0
 57 56  1  0
 57 58  1  0
 58 72  2  0
 59 57  1  0
 59 64  1  0
 60 61  1  0
 60 59  2  0
 61 62  2  0
 62 64  1  0
 62 63  1  0
 64 65  1  0
 65 71  2  0
 65 66  1  0
 66 67  1  0
 67 68  1  0
 69 70  1  0
 69 67  2  0
 71 69  1  0
 72 73  1  0
 72 71  1  0
 73 74  1  0
 74 75  2  0
 76 75  1  0
 76 77  1  0
 78 76  2  0
 79 73  2  0
 79 78  1  0
M  ISO  4   8 101  10 101  52 100  54 100
M  END
>  <TORSDO>  (18) 
F 15

>  <SCORE>  (18) 
-13.173

>  <name>  (18) 
17

>  <ligand_id>  (18) 
17

>  <original_smiles>  (18) 
[H]OC1([H])C([H])([H])N(C(=O)C([H])(N([H])C(=O)N([H])N([H])C(=O)N([H])[N+]([H])=C(N([H])[H])C([H])([H])N([H])C(=O)C([H])([H])C2([H])N=C(c3c([H])c([H])c(Cl)c([H])c3[H])c3c(sc(C([H])([H])[H])c3C([H])([H])[H])-n3c(C([H])([H])[H])nnc32)C(C([H])([H])[H])(C([H])([H])[H])C([H])([H])[H])C([H])(C(=O)N([H])C([H])([H])c2c([H])c([H])c(C3=C(C([H])([H])[H])N([H])C([H])([H])S3)c([H])c2[H])C1([H])[H]

>  <smiles>  (18) 
[H]OC1([H])C([H])([H])N(C(=O)C([H])(N([H])C(=O)N([H])N([H])C(=O)N([H])[N+]([H])=C(N([H])[H])C([H])([H])N([H])C(=O)C([H])([H])C2([H])N=C(c3c([H])c([H])c(Cl)c([H])c3[H])c3c(sc(C([H])([H])[H])c3C([H])([H])[H])-n3c(C([H])([H])[H])nnc32)C(C([H])([H])[H])(C([H])([H])[H])C([H])([H])[H])C([H])(C(=O)N([H])C([H])([H])c2c([H])c([H])c(C3=C(C([H])([H])[H])N([H])C([H])([H])S3)c([H])c2[H])C1([H])[H]

$$$$
18:0:0
     RDKit          3D

 76 82  0  0  1  0  0  0  0  0999 V2000
   26.9920  -27.1530  -16.0420 C   0  0  0  0  0  2  0  0  0  0  0  0
   25.9480  -24.6560  -15.3590 N   0  0  0  0  0  0  0  0  0  0  0  0
   26.9170  -25.0960  -14.5580 C   0  0  0  0  0  0  0  0  0  0  0  0
   27.3290  -24.4670  -13.5830 O   0  0  0  0  0  0  0  0  0  0  0  0
   27.3850  -26.3080  -14.8960 N   0  0  0  0  0  0  0  0  0  0  0  0
   25.6860  -25.2580  -16.1210 H   0  0  0  0  0  0  0  0  0  0  0  0
   28.0930  -26.6920  -14.2870 H   0  0  0  0  0  0  0  0  0  0  0  0
   25.0140  -23.5610  -15.1320 C   0  0  0  0  0  3  0  0  0  0  0  0
   21.8870  -23.8820  -12.7620 C   0  0  0  0  0  3  0  0  0  0  0  0
   21.4160  -22.6610  -11.9580 C   0  0  0  0  0  2  0  0  0  0  0  0
   22.6750  -21.8500  -11.7350 C   0  0  0  0  0  3  0  0  0  0  0  0
   23.5560  -22.1480  -12.9470 C   0  0  0  0  0  2  0  0  0  0  0  0
   23.0900  -23.4280  -13.4910 N   0  0  0  0  0  0  0  0  0  0  0  0
   23.7470  -24.1500  -14.4350 C   0  0  0  0  0  0  0  0  0  0  0  0
   23.3810  -25.2890  -14.7390 O   0  0  0  0  0  0  0  0  0  0  0  0
   19.9440  -25.3240  -13.0720 N   0  0  0  0  0  0  0  0  0  0  0  0
   20.7270  -24.3960  -13.6310 C   0  0  0  0  0  0  0  0  0  0  0  0
   20.5140  -23.9170  -14.7480 O   0  0  0  0  0  0  0  0  0  0  0  0
   20.2010  -25.6740  -12.1590 H   0  0  0  0  0  0  0  0  0  0  0  0
   18.6840  -25.8060  -13.6250 C   0  0  0  0  0  2  0  0  0  0  0  0
   15.2970  -23.2580  -12.6330 C   0  0  0  0  0  0  0  0  0  0  0  0
   16.3340  -23.4540  -11.6980 C   0  0  0  0  0  3  0  0  0  0  0  0
   17.4310  -24.2730  -12.0160 C   0  0  0  0  0  3  0  0  0  0  0  0
   15.3710  -23.8870  -13.8930 C   0  0  0  0  0  3  0  0  0  0  0  0
   16.4700  -24.7080  -14.2110 C   0  0  0  0  0  3  0  0  0  0  0  0
   17.5060  -24.9060  -13.2750 C   0  0  0  0  0  0  0  0  0  0  0  0
   12.1770  -23.7850  -13.2660 C   0  0  0  0  0  1  0  0  0  0  0  0
   12.8200  -22.6350  -12.5180 C   0  0  0  0  0  0  0  0  0  0  0  0
   11.9920  -21.6820  -11.9610 N   0  0  0  0  0  0  0  0  0  0  0  0
   12.6160  -20.7210  -11.0590 C   0  0  0  0  0  2  0  0  0  0  0  0
   14.3880  -20.9710  -11.3520 S   0  0  0  0  0  0  0  0  0  0  0  0
   14.1210  -22.4590  -12.2460 C   0  0  0  0  0  0  0  0  0  0  0  0
   10.9780  -21.7440  -11.9870 H   0  0  0  0  0  0  0  0  0  0  0  0
   23.3420  -22.2870  -10.5620 O   0  0  0  0  0  0  0  0  0  0  0  0
   23.5570  -23.2100  -10.6640 H   0  0  0  0  0  0  0  0  0  0  0  0
   24.7120  -22.9120  -16.5330 C   0  0  1  0  0  0  0  0  0  0  0  0
   26.0120  -22.2670  -17.0690 C   0  0  0  0  0  1  0  0  0  0  0  0
   24.2150  -23.9240  -17.5950 C   0  0  0  0  0  1  0  0  0  0  0  0
   23.6630  -21.7870  -16.4210 C   0  0  0  0  0  1  0  0  0  0  0  0
   25.4950  -27.5130  -16.0700 C   0  0  0  0  0  0  0  0  0  0  0  0
   24.8560  -27.3840  -17.2350 N   0  0  0  0  0  0  0  0  0  0  0  0
   24.9220  -27.8470  -15.0340 O   0  0  0  0  0  0  0  0  0  0  0  0
   25.3950  -27.1770  -18.0640 H   0  0  0  0  0  0  0  0  0  0  0  0
   23.4070  -27.5150  -17.4120 C   0  0  0  0  0  2  0  0  0  0  0  0
   22.9800  -28.9270  -17.8260 C   0  0  0  0  0  0  0  0  0  0  0  0
   21.6860  -29.2380  -17.6750 N   0  0  0  0  0  0  0  0  0  0  0  0
   23.7990  -29.7200  -18.3020 O   0  0  0  0  0  0  0  0  0  0  0  0
   20.9750  -28.6630  -17.2430 H   0  0  0  0  0  0  0  0  0  0  0  0
   20.6110  -31.2640  -17.0480 C   0  0  0  0  0  0  0  0  0  0  0  0
   20.1120  -30.7610  -16.0360 O   0  0  0  0  0  0  0  0  0  0  0  0
   21.2320  -30.5360  -17.9820 N   0  0  0  0  0  0  0  0  0  0  0  0
   21.7610  -30.9390  -18.7460 H   0  0  0  0  0  0  0  0  0  0  0  0
   20.6670  -32.7840  -17.2250 C   0  0  0  0  0  2  0  0  0  0  0  0
   21.2310  -33.5050  -15.9750 C   0  0  0  0  0  3  0  0  0  0  0  0
   22.5810  -33.0130  -15.6860 N   0  0  0  0  0  0  0  0  0  0  0  0
   21.2550  -35.0170  -16.1000 C   0  0  0  0  0  0  0  0  0  0  0  0
   21.0070  -35.7350  -17.2020 N   0  0  0  0  0  0  0  0  0  0  0  0
   21.2310  -37.0510  -16.8510 N   0  0  0  0  0  0  0  0  0  0  0  0
   21.6090  -37.0260  -15.5690 C   0  0  0  0  0  0  0  0  0  0  0  0
   22.0110  -38.2500  -14.8040 C   0  0  0  0  0  1  0  0  0  0  0  0
   21.6160  -35.7790  -15.0490 N   0  0  0  0  0  0  0  0  0  0  0  0
   21.9080  -35.3250  -13.7480 C   0  0  0  0  0  0  0  0  0  0  0  0
   21.4210  -36.1100  -12.2800 S   0  0  0  0  0  0  0  0  0  0  0  0
   22.0810  -34.8180  -11.3190 C   0  0  0  0  0  0  0  0  0  0  0  0
   21.9820  -34.8880   -9.8280 C   0  0  0  0  0  1  0  0  0  0  0  0
   22.6320  -33.8220  -12.0960 C   0  0  0  0  0  0  0  0  0  0  0  0
   23.2100  -32.5600  -11.5040 C   0  0  0  0  0  1  0  0  0  0  0  0
   22.5650  -34.1380  -13.5010 C   0  0  0  0  0  0  0  0  0  0  0  0
   23.1600  -33.2720  -14.5720 C   0  0  0  0  0  0  0  0  0  0  0  0
   24.5090  -32.7050  -14.3540 C   0  0  0  0  0  0  0  0  0  0  0  0
   25.5280  -33.5080  -13.7960 C   0  0  0  0  0  3  0  0  0  0  0  0
   26.8060  -32.9690  -13.5560 C   0  0  0  0  0  3  0  0  0  0  0  0
   27.0700  -31.6260  -13.8740 C   0  0  0  0  0  0  0  0  0  0  0  0
   28.6260  -30.9450  -13.5830 Cl  0  0  0  0  0  0  0  0  0  0  0  0
   26.0610  -30.8300  -14.4350 C   0  0  0  0  0  3  0  0  0  0  0  0
   24.7810  -31.3590  -14.6830 C   0  0  0  0  0  3  0  0  0  0  0  0
  1  5  1  0
  2  8  1  0
  2  3  1  0
  3  4  2  0
  5  3  1  0
  5  7  1  0
  6  2  1  0
  8 14  1  0
  9 17  1  0
  9 10  1  0
 10 11  1  0
 11 34  1  0
 12 11  1  0
 13 12  1  0
 13  9  1  0
 14 13  1  0
 15 14  2  0
 16 19  1  0
 17 16  1  0
 18 17  2  0
 20 26  1  0
 20 16  1  0
 21 32  1  0
 21 22  1  0
 23 22  2  0
 24 21  2  0
 25 24  1  0
 25 26  2  0
 26 23  1  0
 27 28  1  0
 28 32  2  0
 28 29  1  0
 29 30  1  0
 31 30  1  0
 32 31  1  0
 33 29  1  0
 35 34  1  0
 36 39  1  1
 36  8  1  0
 37 36  1  0
 38 36  1  0
 40  1  1  0
 40 42  2  0
 41 40  1  0
 43 41  1  0
 44 41  1  0
 45 46  1  0
 45 44  1  0
 46 48  1  0
 47 45  2  0
 49 50  2  0
 51 46  1  0
 51 49  1  0
 52 51  1  0
 53 49  1  0
 54 53  1  0
 54 55  1  0
 55 69  2  0
 56 54  1  0
 56 61  1  0
 57 58  1  0
 57 56  2  0
 58 59  2  0
 59 61  1  0
 59 60  1  0
 61 62  1  0
 62 68  2  0
 62 63  1  0
 63 64  1  0
 64 65  1  0
 66 67  1  0
 66 64  2  0
 68 66  1  0
 69 70  1  0
 69 68  1  0
 70 71  1  0
 71 72  2  0
 73 74  1  0
 73 72  1  0
 75 73  2  0
 76 75  1  0
 76 70  2  0
M  ISO  4   3 101   5 101  49 100  51 100
M  END
>  <TORSDO>  (19) 
F 16

>  <SCORE>  (19) 
-13.180

>  <name>  (19) 
18

>  <ligand_id>  (19) 
18

>  <original_smiles>  (19) 
[H]OC1([H])C([H])([H])N(C(=O)C([H])(N([H])C(=O)N([H])C([H])([H])C(=O)N([H])C([H])([H])C(=O)N([H])N([H])C(=O)C([H])([H])C2([H])N=C(c3c([H])c([H])c(Cl)c([H])c3[H])c3c(sc(C([H])([H])[H])c3C([H])([H])[H])-n3c(C([H])([H])[H])nnc32)C(C([H])([H])[H])(C([H])([H])[H])C([H])([H])[H])C([H])(C(=O)N([H])C([H])([H])c2c([H])c([H])c(C3=C(C([H])([H])[H])N([H])C([H])([H])S3)c([H])c2[H])C1([H])[H]

>  <smiles>  (19) 
[H]OC1([H])C([H])([H])N(C(=O)C([H])(N([H])C(=O)N([H])C([H])([H])C(=O)N([H])C([H])([H])C(=O)N([H])N([H])C(=O)C([H])([H])C2([H])N=C(c3c([H])c([H])c(Cl)c([H])c3[H])c3c(sc(C([H])([H])[H])c3C([H])([H])[H])-n3c(C([H])([H])[H])nnc32)C(C([H])([H])[H])(C([H])([H])[H])C([H])([H])[H])C([H])(C(=O)N([H])C([H])([H])c2c([H])c([H])c(C3=C(C([H])([H])[H])N([H])C([H])([H])S3)c([H])c2[H])C1([H])[H]

$$$$
19:0:0
     RDKit          3D

 78 84  0  0  1  0  0  0  0  0999 V2000
   26.7020  -27.5890  -16.9000 C   0  0  0  0  0  3  0  0  0  0  0  0
   27.2820  -28.0210  -18.2140 C   0  0  0  0  0  1  0  0  0  0  0  0
   25.4180  -27.8980  -16.5670 N   0  0  0  0  0  0  0  0  0  0  0  0
   27.5450  -26.8920  -16.0930 N   0  0  0  0  0  0  0  0  0  0  0  0
   24.9660  -27.5000  -15.7530 H   0  0  0  0  0  0  0  0  0  0  0  0
   28.4890  -26.6980  -16.4080 H   0  0  0  0  0  0  0  0  0  0  0  0
   26.0040  -24.7890  -15.3650 N   0  0  0  0  0  0  0  0  0  0  0  0
   26.9550  -25.2300  -14.5440 C   0  0  0  0  0  0  0  0  0  0  0  0
   27.4070  -24.5650  -13.6060 O   0  0  0  0  0  0  0  0  0  0  0  0
   27.2600  -26.5220  -14.7620 N   0  0  0  0  0  0  0  0  0  0  0  0
   25.7010  -25.4280  -16.0780 H   0  0  0  0  0  0  0  0  0  0  0  0
   27.9590  -26.9730  -14.1850 H   0  0  0  0  0  0  0  0  0  0  0  0
   25.0900  -23.6690  -15.1460 C   0  0  0  0  0  3  0  0  0  0  0  0
   21.9070  -23.9730  -12.8460 C   0  0  0  0  0  3  0  0  0  0  0  0
   21.4270  -22.7530  -12.0430 C   0  0  0  0  0  2  0  0  0  0  0  0
   22.6870  -21.9520  -11.7870 C   0  0  0  0  0  3  0  0  0  0  0  0
   23.5930  -22.2500  -12.9820 C   0  0  0  0  0  2  0  0  0  0  0  0
   23.1280  -23.5230  -13.5480 N   0  0  0  0  0  0  0  0  0  0  0  0
   23.8050  -24.2480  -14.4740 C   0  0  0  0  0  0  0  0  0  0  0  0
   23.4570  -25.3960  -14.7780 O   0  0  0  0  0  0  0  0  0  0  0  0
   19.9750  -25.4120  -13.2210 N   0  0  0  0  0  0  0  0  0  0  0  0
   20.7630  -24.4660  -13.7450 C   0  0  0  0  0  0  0  0  0  0  0  0
   20.5700  -23.9630  -14.8550 O   0  0  0  0  0  0  0  0  0  0  0  0
   20.2170  -25.7790  -12.3110 H   0  0  0  0  0  0  0  0  0  0  0  0
   18.7280  -25.8840  -13.8060 C   0  0  0  0  0  2  0  0  0  0  0  0
   15.3000  -23.4130  -12.7570 C   0  0  0  0  0  0  0  0  0  0  0  0
   16.3190  -23.6490  -11.8110 C   0  0  0  0  0  3  0  0  0  0  0  0
   17.4280  -24.4440  -12.1470 C   0  0  0  0  0  3  0  0  0  0  0  0
   15.4050  -23.9750  -14.0470 C   0  0  0  0  0  3  0  0  0  0  0  0
   16.5180  -24.7710  -14.3840 C   0  0  0  0  0  3  0  0  0  0  0  0
   17.5340  -25.0100  -13.4360 C   0  0  0  0  0  0  0  0  0  0  0  0
   12.2030  -23.9010  -13.5200 C   0  0  0  0  0  1  0  0  0  0  0  0
   12.8190  -22.8020  -12.6780 C   0  0  0  0  0  0  0  0  0  0  0  0
   11.9700  -21.8880  -12.0880 N   0  0  0  0  0  0  0  0  0  0  0  0
   12.5620  -20.9870  -11.1060 C   0  0  0  0  0  2  0  0  0  0  0  0
   14.3440  -21.2140  -11.3580 S   0  0  0  0  0  0  0  0  0  0  0  0
   14.1100  -22.6430  -12.3560 C   0  0  0  0  0  0  0  0  0  0  0  0
   10.9570  -21.9520  -12.1470 H   0  0  0  0  0  0  0  0  0  0  0  0
   23.3200  -22.4010  -10.5980 O   0  0  0  0  0  0  0  0  0  0  0  0
   23.5350  -23.3230  -10.7010 H   0  0  0  0  0  0  0  0  0  0  0  0
   24.8230  -22.9980  -16.5450 C   0  0  1  0  0  0  0  0  0  0  0  0
   26.1390  -22.3580  -17.0450 C   0  0  0  0  0  1  0  0  0  0  0  0
   24.3410  -23.9970  -17.6240 C   0  0  0  0  0  1  0  0  0  0  0  0
   23.7840  -21.8640  -16.4410 C   0  0  0  0  0  1  0  0  0  0  0  0
   23.2920  -28.7050  -17.2400 C   0  0  0  0  0  0  0  0  0  0  0  0
   24.6310  -28.7750  -17.3500 N   0  0  0  0  0  0  0  0  0  0  0  0
   22.7290  -27.7700  -16.6580 O   0  0  0  0  0  0  0  0  0  0  0  0
   25.1850  -29.5350  -17.7210 H   0  0  0  0  0  0  0  0  0  0  0  0
   22.3560  -29.8170  -19.3680 C   0  0  0  0  0  1  0  0  0  0  0  0
   22.4480  -29.8650  -17.8370 C   0  0  0  0  0  3  0  0  0  0  0  0
   20.4110  -30.7570  -16.6300 C   0  0  0  0  0  0  0  0  0  0  0  0
   19.7990  -30.4360  -15.6170 O   0  0  0  0  0  0  0  0  0  0  0  0
   21.1070  -29.7920  -17.2470 N   0  0  0  0  0  0  0  0  0  0  0  0
   20.9300  -28.8650  -16.8800 H   0  0  0  0  0  0  0  0  0  0  0  0
   20.4620  -32.2440  -17.0510 C   0  0  0  0  0  2  0  0  0  0  0  0
   20.9830  -33.1410  -15.8960 C   0  0  0  0  0  3  0  0  0  0  0  0
   22.3350  -32.6850  -15.5830 N   0  0  0  0  0  0  0  0  0  0  0  0
   21.0020  -34.6380  -16.1750 C   0  0  0  0  0  0  0  0  0  0  0  0
   20.7050  -35.2430  -17.3300 N   0  0  0  0  0  0  0  0  0  0  0  0
   20.9490  -36.5880  -17.1220 N   0  0  0  0  0  0  0  0  0  0  0  0
   21.3800  -36.6890  -15.8600 C   0  0  0  0  0  0  0  0  0  0  0  0
   21.8250  -37.9810  -15.2420 C   0  0  0  0  0  1  0  0  0  0  0  0
   21.4000  -35.5010  -15.2170 N   0  0  0  0  0  0  0  0  0  0  0  0
   21.7390  -35.1840  -13.8830 C   0  0  0  0  0  0  0  0  0  0  0  0
   21.3180  -36.1260  -12.4880 S   0  0  0  0  0  0  0  0  0  0  0  0
   22.0040  -34.9330  -11.4200 C   0  0  0  0  0  0  0  0  0  0  0  0
   21.9630  -35.1570   -9.9410 C   0  0  0  0  0  1  0  0  0  0  0  0
   22.5130  -33.8540  -12.1070 C   0  0  0  0  0  0  0  0  0  0  0  0
   23.0990  -32.6500  -11.4120 C   0  0  0  0  0  1  0  0  0  0  0  0
   22.3960  -34.0250  -13.5340 C   0  0  0  0  0  0  0  0  0  0  0  0
   22.9450  -33.0490  -14.5240 C   0  0  0  0  0  0  0  0  0  0  0  0
   24.2910  -32.4820  -14.2990 C   0  0  0  0  0  0  0  0  0  0  0  0
   25.3530  -33.3190  -13.8960 C   0  0  0  0  0  3  0  0  0  0  0  0
   26.6290  -32.7740  -13.6620 C   0  0  0  0  0  3  0  0  0  0  0  0
   26.8460  -31.3960  -13.8290 C   0  0  0  0  0  0  0  0  0  0  0  0
   28.4040  -30.7210  -13.5370 Cl  0  0  0  0  0  0  0  0  0  0  0  0
   25.7900  -30.5580  -14.2270 C   0  0  0  0  0  3  0  0  0  0  0  0
   24.5130  -31.0980  -14.4670 C   0  0  0  0  0  3  0  0  0  0  0  0
  1  2  1  0
  1  3  1  0
  1  4  1  0
  3  5  1  0
  4 10  1  0
  6  4  1  0
  7 13  1  0
  7  8  1  0
  8  9  2  0
 10  8  1  0
 10 12  1  0
 11  7  1  0
 13 19  1  0
 14 22  1  0
 14 15  1  0
 15 16  1  0
 16 39  1  0
 17 16  1  0
 18 17  1  0
 18 14  1  0
 19 18  1  0
 20 19  2  0
 21 24  1  0
 22 21  1  0
 23 22  2  0
 25 31  1  0
 25 21  1  0
 26 37  1  0
 26 27  1  0
 28 27  2  0
 29 26  2  0
 30 29  1  0
 30 31  2  0
 31 28  1  0
 32 33  1  0
 33 37  2  0
 33 34  1  0
 34 35  1  0
 36 35  1  0
 37 36  1  0
 38 34  1  0
 40 39  1  0
 41 44  1  1
 41 13  1  0
 42 41  1  0
 43 41  1  0
 45 47  2  0
 46 45  1  0
 46  3  1  0
 48 46  1  0
 50 49  1  0
 50 53  1  0
 50 45  1  0
 51 52  2  0
 53 54  1  0
 53 51  1  0
 55 51  1  0
 56 55  1  0
 56 57  1  0
 57 71  2  0
 58 56  1  0
 58 63  1  0
 59 60  1  0
 59 58  2  0
 60 61  2  0
 61 62  1  0
 61 63  1  0
 63 64  1  0
 64 70  2  0
 64 65  1  0
 65 66  1  0
 66 67  1  0
 68 66  2  0
 68 69  1  0
 70 68  1  0
 71 72  1  0
 71 70  1  0
 72 73  1  0
 73 74  2  0
 75 74  1  0
 75 76  1  0
 77 75  2  0
 78 72  2  0
 78 77  1  0
M  ISO  4   8 101  10 101  51 100  53 100
M  END
>  <TORSDO>  (20) 
F 15

>  <SCORE>  (20) 
-13.129

>  <name>  (20) 
19

>  <ligand_id>  (20) 
19

>  <original_smiles>  (20) 
[H]OC1([H])C([H])([H])N(C(=O)C([H])(N([H])C(=O)N([H])[N+]([H])=C(N([H])N([H])C(=O)C([H])(N([H])C(=O)C([H])([H])C2([H])N=C(c3c([H])c([H])c(Cl)c([H])c3[H])c3c(sc(C([H])([H])[H])c3C([H])([H])[H])-n3c(C([H])([H])[H])nnc32)C([H])([H])[H])C([H])([H])[H])C(C([H])([H])[H])(C([H])([H])[H])C([H])([H])[H])C([H])(C(=O)N([H])C([H])([H])c2c([H])c([H])c(C3=C(C([H])([H])[H])N([H])C([H])([H])S3)c([H])c2[H])C1([H])[H]

>  <smiles>  (20) 
[H]OC1([H])C([H])([H])N(C(=O)C([H])(N([H])C(=O)N([H])[N+]([H])=C(N([H])N([H])C(=O)C([H])(N([H])C(=O)C([H])([H])C2([H])N=C(c3c([H])c([H])c(Cl)c([H])c3[H])c3c(sc(C([H])([H])[H])c3C([H])([H])[H])-n3c(C([H])([H])[H])nnc32)C([H])([H])[H])C([H])([H])[H])C(C([H])([H])[H])(C([H])([H])[H])C([H])([H])[H])C([H])(C(=O)N([H])C([H])([H])c2c([H])c([H])c(C3=C(C([H])([H])[H])N([H])C([H])([H])S3)c([H])c2[H])C1([H])[H]

$$$$
20:0:0
     RDKit          3D

 77 84  0  0  1  0  0  0  0  0999 V2000
   25.6510  -27.2140  -16.8310 C   0  0  0  0  0  3  0  0  0  0  0  0
   27.6320  -27.3020  -17.4970 C   0  0  0  0  0  3  0  0  0  0  0  0
   26.2540  -27.4550  -18.2120 C   0  0  0  0  0  3  0  0  0  0  0  0
   26.8690  -26.2820  -16.6030 C   0  0  0  0  0  3  0  0  0  0  0  0
   24.1860  -26.8620  -16.6740 C   0  0  0  0  0  1  0  0  0  0  0  0
   28.8600  -26.8840  -18.2950 C   0  0  0  0  0  1  0  0  0  0  0  0
   25.8400  -24.5060  -14.9090 N   0  0  0  0  0  0  0  0  0  0  0  0
   26.8080  -25.2020  -14.3210 C   0  0  0  0  0  0  0  0  0  0  0  0
   27.1960  -24.9810  -13.1690 O   0  0  0  0  0  0  0  0  0  0  0  0
   27.2820  -26.1440  -15.1750 N   0  0  0  0  0  0  0  0  0  0  0  0
   25.5780  -24.8400  -15.8210 H   0  0  0  0  0  0  0  0  0  0  0  0
   28.0350  -26.7330  -14.8460 H   0  0  0  0  0  0  0  0  0  0  0  0
   25.0490  -23.3820  -14.4500 C   0  0  0  0  0  3  0  0  0  0  0  0
   21.6940  -23.6700  -12.4200 C   0  0  0  0  0  3  0  0  0  0  0  0
   21.0900  -22.4200  -11.7680 C   0  0  0  0  0  2  0  0  0  0  0  0
   22.2840  -21.5380  -11.4680 C   0  0  0  0  0  3  0  0  0  0  0  0
   23.3090  -21.8760  -12.5480 C   0  0  0  0  0  2  0  0  0  0  0  0
   22.9510  -23.2080  -13.0460 N   0  0  0  0  0  0  0  0  0  0  0  0
   23.7300  -23.9610  -13.8570 C   0  0  0  0  0  0  0  0  0  0  0  0
   23.4300  -25.1320  -14.1030 O   0  0  0  0  0  0  0  0  0  0  0  0
   19.9040  -25.2720  -12.8470 N   0  0  0  0  0  0  0  0  0  0  0  0
   20.6590  -24.3000  -13.3700 C   0  0  0  0  0  0  0  0  0  0  0  0
   20.5080  -23.8710  -14.5160 O   0  0  0  0  0  0  0  0  0  0  0  0
   20.1040  -25.5790  -11.9060 H   0  0  0  0  0  0  0  0  0  0  0  0
   18.7390  -25.8660  -13.4950 C   0  0  0  0  0  2  0  0  0  0  0  0
   15.0840  -23.5910  -12.8470 C   0  0  0  0  0  0  0  0  0  0  0  0
   16.0710  -23.6510  -11.8400 C   0  0  0  0  0  3  0  0  0  0  0  0
   17.2520  -24.3830  -12.0490 C   0  0  0  0  0  3  0  0  0  0  0  0
   15.2960  -24.2650  -14.0680 C   0  0  0  0  0  3  0  0  0  0  0  0
   16.4810  -24.9960  -14.2780 C   0  0  0  0  0  3  0  0  0  0  0  0
   17.4650  -25.0610  -13.2700 C   0  0  0  0  0  0  0  0  0  0  0  0
   12.0670  -24.4540  -13.6020 C   0  0  0  0  0  1  0  0  0  0  0  0
   12.5580  -23.2030  -12.8990 C   0  0  0  0  0  0  0  0  0  0  0  0
   11.6150  -22.3020  -12.4490 N   0  0  0  0  0  0  0  0  0  0  0  0
   12.0970  -21.2300  -11.5860 C   0  0  0  0  0  2  0  0  0  0  0  0
   13.8980  -21.3270  -11.7720 S   0  0  0  0  0  0  0  0  0  0  0  0
   13.8200  -22.8870  -12.5740 C   0  0  0  0  0  0  0  0  0  0  0  0
   10.6150  -22.4650  -12.5170 H   0  0  0  0  0  0  0  0  0  0  0  0
   22.8320  -21.8550  -10.1990 O   0  0  0  0  0  0  0  0  0  0  0  0
   23.0930  -22.7700  -10.2020 H   0  0  0  0  0  0  0  0  0  0  0  0
   24.8390  -22.4570  -15.7100 C   0  0  1  0  0  0  0  0  0  0  0  0
   26.1980  -21.8310  -16.1070 C   0  0  0  0  0  1  0  0  0  0  0  0
   24.3110  -23.2000  -16.9650 C   0  0  0  0  0  1  0  0  0  0  0  0
   23.8630  -21.3000  -15.4000 C   0  0  0  0  0  1  0  0  0  0  0  0
   25.9780  -28.8740  -18.5890 N   0  0  0  0  0  2  0  0  0  0  0  0
   25.1140  -29.1690  -19.4550 N   0  0  0  0  0  2  0  0  0  0  0  0
   23.9240  -28.3020  -19.7080 C   0  0  0  0  0  2  0  0  0  0  0  0
   22.6800  -29.2040  -19.9630 C   0  0  0  0  0  2  0  0  0  0  0  0
   22.1960  -30.2200  -18.8940 C   0  0  0  0  0  2  0  0  0  0  0  0
   20.5990  -30.4100  -16.9260 C   0  0  0  0  0  0  0  0  0  0  0  0
   20.1510  -29.9190  -15.8840 O   0  0  0  0  0  0  0  0  0  0  0  0
   21.3500  -29.6850  -17.8000 N   0  0  0  0  0  0  0  0  0  0  0  0
   21.4500  -28.7010  -17.5980 H   0  0  0  0  0  0  0  0  0  0  0  0
   20.3780  -31.9100  -17.1800 C   0  0  0  0  0  2  0  0  0  0  0  0
   21.0050  -32.8050  -16.0830 C   0  0  0  0  0  3  0  0  0  0  0  0
   22.3950  -32.4140  -15.8460 N   0  0  0  0  0  0  0  0  0  0  0  0
   20.9400  -34.2900  -16.3940 C   0  0  0  0  0  0  0  0  0  0  0  0
   20.5760  -34.8470  -17.5560 N   0  0  0  0  0  0  0  0  0  0  0  0
   20.7640  -36.2050  -17.3970 N   0  0  0  0  0  0  0  0  0  0  0  0
   21.2370  -36.3630  -16.1550 C   0  0  0  0  0  0  0  0  0  0  0  0
   21.6340  -37.6920  -15.5830 C   0  0  0  0  0  1  0  0  0  0  0  0
   21.3420  -35.1960  -15.4840 N   0  0  0  0  0  0  0  0  0  0  0  0
   21.7500  -34.9250  -14.1630 C   0  0  0  0  0  0  0  0  0  0  0  0
   21.3250  -35.8640  -12.7710 S   0  0  0  0  0  0  0  0  0  0  0  0
   22.1200  -34.7320  -11.7160 C   0  0  0  0  0  0  0  0  0  0  0  0
   22.1330  -34.9840  -10.2440 C   0  0  0  0  0  1  0  0  0  0  0  0
   22.6610  -33.6680  -12.4040 C   0  0  0  0  0  0  0  0  0  0  0  0
   23.3460  -32.5170  -11.7160 C   0  0  0  0  0  1  0  0  0  0  0  0
   22.4780  -33.8050  -13.8250 C   0  0  0  0  0  0  0  0  0  0  0  0
   23.0370  -32.8360  -14.8230 C   0  0  0  0  0  0  0  0  0  0  0  0
   24.4230  -32.3510  -14.6460 C   0  0  0  0  0  0  0  0  0  0  0  0
   25.4370  -33.2590  -14.2680 C   0  0  0  0  0  3  0  0  0  0  0  0
   26.7560  -32.8060  -14.0620 C   0  0  0  0  0  3  0  0  0  0  0  0
   27.0600  -31.4440  -14.2100 C   0  0  0  0  0  0  0  0  0  0  0  0
   28.6650  -30.8670  -13.9560 Cl  0  0  0  0  0  0  0  0  0  0  0  0
   26.0450  -30.5430  -14.5500 C   0  0  0  0  0  3  0  0  0  0  0  0
   24.7350  -30.9850  -14.8080 C   0  0  0  0  0  3  0  0  0  0  0  0
  1  5  1  0
  1  4  1  0
  2  6  1  0
  2  4  1  0
  3 45  1  0
  3  2  1  0
  3  1  1  0
  4 10  1  0
  7 13  1  0
  7  8  1  0
  8  9  2  0
 10 12  1  0
 10  8  1  0
 11  7  1  0
 13 19  1  0
 14 22  1  0
 14 15  1  0
 15 16  1  0
 16 39  1  0
 17 16  1  0
 18 17  1  0
 18 14  1  0
 19 18  1  0
 20 19  2  0
 21 24  1  0
 22 21  1  0
 23 22  2  0
 25 31  1  0
 25 21  1  0
 26 37  1  0
 26 27  1  0
 28 27  2  0
 29 26  2  0
 30 29  1  0
 30 31  2  0
 31 28  1  0
 32 33  1  0
 33 37  2  0
 33 34  1  0
 34 35  1  0
 36 35  1  0
 37 36  1  0
 38 34  1  0
 40 39  1  0
 41 44  1  1
 41 13  1  0
 42 41  1  0
 43 41  1  0
 46 45  1  0
 47 46  1  0
 48 47  1  0
 48 49  1  0
 49 52  1  0
 50 51  2  0
 52 53  1  0
 52 50  1  0
 54 50  1  0
 55 54  1  0
 55 56  1  0
 56 70  2  0
 57 55  1  0
 57 62  1  0
 58 59  1  0
 58 57  2  0
 59 60  2  0
 60 61  1  0
 60 62  1  0
 62 63  1  0
 63 69  2  0
 63 64  1  0
 64 65  1  0
 65 66  1  0
 67 68  1  0
 67 65  2  0
 69 67  1  0
 70 71  1  0
 70 69  1  0
 71 72  1  0
 72 73  2  0
 74 73  1  0
 74 75  1  0
 76 74  2  0
 77 71  2  0
 77 76  1  0
M  ISO  4   8 101  10 101  50 100  52 100
M  END
>  <TORSDO>  (21) 
F 17

>  <SCORE>  (21) 
-7.565

>  <name>  (21) 
20

>  <ligand_id>  (21) 
20

>  <original_smiles>  (21) 
[H]OC1([H])C([H])([H])N(C(=O)C([H])(N([H])C(=O)N([H])C2([H])C([H])(C([H])([H])[H])C([H])(N=NC([H])([H])C([H])([H])C([H])([H])N([H])C(=O)C([H])([H])C3([H])N=C(c4c([H])c([H])c(Cl)c([H])c4[H])c4c(sc(C([H])([H])[H])c4C([H])([H])[H])-n4c(C([H])([H])[H])nnc43)C2([H])C([H])([H])[H])C(C([H])([H])[H])(C([H])([H])[H])C([H])([H])[H])C([H])(C(=O)N([H])C([H])([H])c2c([H])c([H])c(C3=C(C([H])([H])[H])N([H])C([H])([H])S3)c([H])c2[H])C1([H])[H]

>  <smiles>  (21) 
[H]OC1([H])C([H])([H])N(C(=O)C([H])(N([H])C(=O)N([H])C2([H])C([H])(C([H])([H])[H])C([H])(N=NC([H])([H])C([H])([H])C([H])([H])N([H])C(=O)C([H])([H])C3([H])N=C(c4c([H])c([H])c(Cl)c([H])c4[H])c4c(sc(C([H])([H])[H])c4C([H])([H])[H])-n4c(C([H])([H])[H])nnc43)C2([H])C([H])([H])[H])C(C([H])([H])[H])(C([H])([H])[H])C([H])([H])[H])C([H])(C(=O)N([H])C([H])([H])c2c([H])c([H])c(C3=C(C([H])([H])[H])N([H])C([H])([H])S3)c([H])c2[H])C1([H])[H]

$$$$
21:0:0
     RDKit          3D

 79 87  0  0  1  0  0  0  0  0999 V2000
   28.0930  -27.6430  -16.7470 C   0  0  0  0  0  2  0  0  0  0  0  0
   27.2370  -28.4510  -17.7640 C   0  0  0  0  0  2  0  0  0  0  0  0
   25.9480  -26.5520  -17.0440 C   0  0  0  0  0  2  0  0  0  0  0  0
   27.3920  -26.2740  -16.5430 C   0  0  0  0  0  3  0  0  0  0  0  0
   26.1880  -27.4550  -18.2740 C   0  0  0  0  0  3  0  0  0  0  0  0
   25.9680  -24.1790  -15.4020 N   0  0  0  0  0  0  0  0  0  0  0  0
   27.0730  -24.5100  -14.7400 C   0  0  0  0  0  0  0  0  0  0  0  0
   27.5190  -23.8500  -13.7920 O   0  0  0  0  0  0  0  0  0  0  0  0
   27.5430  -25.7110  -15.1670 N   0  0  0  0  0  0  0  0  0  0  0  0
   25.6540  -24.8470  -16.0880 H   0  0  0  0  0  0  0  0  0  0  0  0
   28.2540  -26.1450  -14.5950 H   0  0  0  0  0  0  0  0  0  0  0  0
   24.9830  -23.1540  -15.1050 C   0  0  0  0  0  3  0  0  0  0  0  0
   21.8420  -23.7600  -12.8030 C   0  0  0  0  0  3  0  0  0  0  0  0
   21.2070  -22.5840  -12.0490 C   0  0  0  0  0  2  0  0  0  0  0  0
   22.3610  -21.6340  -11.8080 C   0  0  0  0  0  3  0  0  0  0  0  0
   23.3020  -21.8520  -12.9950 C   0  0  0  0  0  2  0  0  0  0  0  0
   23.0040  -23.1890  -13.5150 N   0  0  0  0  0  0  0  0  0  0  0  0
   23.7710  -23.8570  -14.4190 C   0  0  0  0  0  0  0  0  0  0  0  0
   23.5530  -25.0440  -14.6910 O   0  0  0  0  0  0  0  0  0  0  0  0
   20.0740  -25.3990  -13.1190 N   0  0  0  0  0  0  0  0  0  0  0  0
   20.7750  -24.4200  -13.6940 C   0  0  0  0  0  0  0  0  0  0  0  0
   20.5600  -24.0090  -14.8340 O   0  0  0  0  0  0  0  0  0  0  0  0
   20.3280  -25.6800  -12.1840 H   0  0  0  0  0  0  0  0  0  0  0  0
   18.8970  -26.0330  -13.6950 C   0  0  0  0  0  2  0  0  0  0  0  0
   15.2280  -23.8140  -12.9370 C   0  0  0  0  0  0  0  0  0  0  0  0
   16.2030  -23.9290  -11.9270 C   0  0  0  0  0  3  0  0  0  0  0  0
   17.3950  -24.6410  -12.1620 C   0  0  0  0  0  3  0  0  0  0  0  0
   15.4550  -24.4200  -14.1900 C   0  0  0  0  0  3  0  0  0  0  0  0
   16.6460  -25.1340  -14.4300 C   0  0  0  0  0  3  0  0  0  0  0  0
   17.6220  -25.2500  -13.4170 C   0  0  0  0  0  0  0  0  0  0  0  0
   12.2390  -24.5140  -13.9310 C   0  0  0  0  0  1  0  0  0  0  0  0
   12.7110  -23.3720  -13.0580 C   0  0  0  0  0  0  0  0  0  0  0  0
   11.7570  -22.5160  -12.5510 N   0  0  0  0  0  0  0  0  0  0  0  0
   12.2080  -21.5720  -11.5330 C   0  0  0  0  0  2  0  0  0  0  0  0
   14.0160  -21.6730  -11.6490 S   0  0  0  0  0  0  0  0  0  0  0  0
   13.9620  -23.1230  -12.6420 C   0  0  0  0  0  0  0  0  0  0  0  0
   10.7610  -22.6500  -12.6870 H   0  0  0  0  0  0  0  0  0  0  0  0
   23.0430  -21.9590  -10.6050 O   0  0  0  0  0  0  0  0  0  0  0  0
   23.3890  -22.8410  -10.6740 H   0  0  0  0  0  0  0  0  0  0  0  0
   24.6160  -22.4760  -16.4760 C   0  0  1  0  0  0  0  0  0  0  0  0
   25.8310  -21.6650  -16.9840 C   0  0  0  0  0  1  0  0  0  0  0  0
   24.2490  -23.4860  -17.5900 C   0  0  0  0  0  1  0  0  0  0  0  0
   23.4360  -21.4960  -16.3190 C   0  0  0  0  0  1  0  0  0  0  0  0
   25.0060  -28.0410  -18.9900 N   0  0  0  0  0  4  0  0  0  0  0  0
   25.3620  -28.5490  -19.7890 H   0  0  0  0  0  0  0  0  0  0  0  0
   24.4910  -27.2570  -19.3540 H   0  0  0  0  0  0  0  0  0  0  0  0
   24.0600  -28.9380  -18.2640 C   0  0  0  0  0  2  0  0  0  0  0  0
   22.6900  -29.1820  -18.9930 C   0  0  0  0  0  2  0  0  0  0  0  0
   20.3160  -29.5530  -16.3400 C   0  0  0  0  0  0  0  0  0  0  0  0
   19.8600  -29.2390  -15.2330 O   0  0  0  0  0  0  0  0  0  0  0  0
   21.2000  -26.3700  -17.4080 C   0  0  0  0  0  2  0  0  0  0  0  0
   21.1090  -27.1070  -18.7410 C   0  0  0  0  0  2  0  0  0  0  0  0
   21.6170  -27.4480  -16.4050 C   0  0  0  0  0  2  0  0  0  0  0  0
   21.3340  -28.6030  -18.4500 C   0  0  0  0  0  3  0  0  0  0  0  0
   21.1550  -28.7110  -16.9940 N   0  0  0  0  0  0  0  0  0  0  0  0
   20.1090  -31.0020  -16.8240 C   0  0  0  0  0  2  0  0  0  0  0  0
   20.8530  -31.9890  -15.8860 C   0  0  0  0  0  3  0  0  0  0  0  0
   22.2400  -31.5370  -15.7630 N   0  0  0  0  0  0  0  0  0  0  0  0
   20.8380  -33.4380  -16.3450 C   0  0  0  0  0  0  0  0  0  0  0  0
   20.3840  -33.9090  -17.5080 N   0  0  0  0  0  0  0  0  0  0  0  0
   20.6690  -35.2660  -17.5010 N   0  0  0  0  0  0  0  0  0  0  0  0
   21.2730  -35.5060  -16.3340 C   0  0  0  0  0  0  0  0  0  0  0  0
   21.7990  -36.8500  -15.9320 C   0  0  0  0  0  1  0  0  0  0  0  0
   21.3870  -34.3950  -15.5690 N   0  0  0  0  0  0  0  0  0  0  0  0
   21.9180  -34.2220  -14.2790 C   0  0  0  0  0  0  0  0  0  0  0  0
   21.6990  -35.3130  -12.9510 S   0  0  0  0  0  0  0  0  0  0  0  0
   22.5430  -34.2440  -11.8760 C   0  0  0  0  0  0  0  0  0  0  0  0
   22.7330  -34.6330  -10.4530 C   0  0  0  0  0  1  0  0  0  0  0  0
   22.9460  -33.0900  -12.5050 C   0  0  0  0  0  0  0  0  0  0  0  0
   23.6420  -31.9710  -11.7800 C   0  0  0  0  0  1  0  0  0  0  0  0
   22.6220  -33.0960  -13.9080 C   0  0  0  0  0  0  0  0  0  0  0  0
   23.0110  -32.0030  -14.8570 C   0  0  0  0  0  0  0  0  0  0  0  0
   24.3710  -31.4350  -14.7740 C   0  0  0  0  0  0  0  0  0  0  0  0
   25.4690  -32.2830  -14.5300 C   0  0  0  0  0  3  0  0  0  0  0  0
   26.7630  -31.7480  -14.4240 C   0  0  0  0  0  3  0  0  0  0  0  0
   26.9590  -30.3590  -14.5700 C   0  0  0  0  0  0  0  0  0  0  0  0
   28.5450  -29.6880  -14.4490 Cl  0  0  0  0  0  0  0  0  0  0  0  0
   25.8640  -29.5140  -14.8310 C   0  0  0  0  0  3  0  0  0  0  0  0
   24.5690  -30.0480  -14.9340 C   0  0  0  0  0  3  0  0  0  0  0  0
  1  4  1  0
  2  1  1  0
  3  4  1  0
  4  9  1  0
  5 44  1  0
  5  2  1  0
  5  3  1  0
  6 12  1  0
  6  7  1  0
  7  8  2  0
  9  7  1  0
  9 11  1  0
 10  6  1  0
 12 18  1  0
 13 21  1  0
 13 14  1  0
 14 15  1  0
 15 38  1  0
 16 15  1  0
 17 16  1  0
 17 13  1  0
 18 17  1  0
 19 18  2  0
 20 23  1  0
 21 20  1  0
 22 21  2  0
 24 30  1  0
 24 20  1  0
 25 36  1  0
 25 26  1  0
 27 26  2  0
 28 25  2  0
 29 28  1  0
 29 30  2  0
 30 27  1  0
 31 32  1  0
 32 36  2  0
 32 33  1  0
 33 34  1  0
 35 34  1  0
 36 35  1  0
 37 33  1  0
 39 38  1  0
 40 43  1  1
 40 12  1  0
 41 40  1  0
 42 40  1  0
 44 47  1  0
 45 44  1  0
 46 44  1  0
 48 47  1  0
 49 50  2  0
 51 53  1  0
 52 54  1  0
 52 51  1  0
 54 48  1  0
 54 55  1  0
 55 53  1  0
 55 49  1  0
 56 49  1  0
 57 56  1  0
 57 58  1  0
 58 72  2  0
 59 57  1  0
 59 64  1  0
 60 61  1  0
 60 59  2  0
 61 62  2  0
 62 63  1  0
 62 64  1  0
 64 65  1  0
 65 71  2  0
 65 66  1  0
 66 67  1  0
 67 68  1  0
 69 67  2  0
 69 70  1  0
 71 69  1  0
 72 73  1  0
 72 71  1  0
 73 74  1  0
 74 75  2  0
 76 77  1  0
 76 75  1  0
 78 76  2  0
 79 78  1  0
 79 73  2  0
M  ISO  4   7 101   9 101  49 100  55 100
M  END
>  <TORSDO>  (22) 
F 16

>  <SCORE>  (22) 
-10.522

>  <name>  (22) 
21

>  <ligand_id>  (22) 
21

>  <original_smiles>  (22) 
[H]OC1([H])C([H])([H])N(C(=O)C([H])(N([H])C(=O)N([H])C2([H])C([H])([H])C([H])([H])C([H])([N+]([H])([H])C([H])([H])C([H])([H])C3([H])N(C(=O)C([H])([H])C4([H])N=C(c5c([H])c([H])c(Cl)c([H])c5[H])c5c(sc(C([H])([H])[H])c5C([H])([H])[H])-n5c(C([H])([H])[H])nnc54)C([H])([H])C([H])([H])C3([H])[H])C2([H])[H])C(C([H])([H])[H])(C([H])([H])[H])C([H])([H])[H])C([H])(C(=O)N([H])C([H])([H])c2c([H])c([H])c(C3=C(C([H])([H])[H])N([H])C([H])([H])S3)c([H])c2[H])C1([H])[H]

>  <smiles>  (22) 
[H]OC1([H])C([H])([H])N(C(=O)C([H])(N([H])C(=O)N([H])C2([H])C([H])([H])C([H])([H])C([H])([N+]([H])([H])C([H])([H])C([H])([H])C3([H])N(C(=O)C([H])([H])C4([H])N=C(c5c([H])c([H])c(Cl)c([H])c5[H])c5c(sc(C([H])([H])[H])c5C([H])([H])[H])-n5c(C([H])([H])[H])nnc54)C([H])([H])C([H])([H])C3([H])[H])C2([H])[H])C(C([H])([H])[H])(C([H])([H])[H])C([H])([H])[H])C([H])(C(=O)N([H])C([H])([H])c2c([H])c([H])c(C3=C(C([H])([H])[H])N([H])C([H])([H])S3)c([H])c2[H])C1([H])[H]

$$$$
22:0:0
     RDKit          3D

 77 83  0  0  1  0  0  0  0  0999 V2000
   25.7150  -27.6250  -16.6400 C   0  0  0  0  0  0  0  0  0  0  0  0
   26.0890  -27.5000  -15.3500 N   0  0  0  0  0  0  0  0  0  0  0  0
   26.1700  -26.9050  -17.5290 O   0  0  0  0  0  0  0  0  0  0  0  0
   25.6780  -28.0220  -14.5840 H   0  0  0  0  0  0  0  0  0  0  0  0
   25.9940  -24.8210  -15.3560 N   0  0  0  0  0  0  0  0  0  0  0  0
   26.9040  -25.3590  -14.5550 C   0  0  0  0  0  0  0  0  0  0  0  0
   27.4160  -24.7710  -13.5990 O   0  0  0  0  0  0  0  0  0  0  0  0
   27.1490  -26.6380  -14.8840 N   0  0  0  0  0  0  0  0  0  0  0  0
   25.7310  -25.4020  -16.1360 H   0  0  0  0  0  0  0  0  0  0  0  0
   27.8420  -27.1690  -14.3730 H   0  0  0  0  0  0  0  0  0  0  0  0
   25.1230  -23.6850  -15.1070 C   0  0  0  0  0  3  0  0  0  0  0  0
   21.9230  -23.9090  -12.8320 C   0  0  0  0  0  3  0  0  0  0  0  0
   21.4520  -22.6640  -12.0630 C   0  0  0  0  0  2  0  0  0  0  0  0
   22.7190  -21.8740  -11.8150 C   0  0  0  0  0  3  0  0  0  0  0  0
   23.6320  -22.2110  -12.9930 C   0  0  0  0  0  2  0  0  0  0  0  0
   23.1560  -23.4920  -13.5310 N   0  0  0  0  0  0  0  0  0  0  0  0
   23.8290  -24.2430  -14.4390 C   0  0  0  0  0  0  0  0  0  0  0  0
   23.4680  -25.3910  -14.7270 O   0  0  0  0  0  0  0  0  0  0  0  0
   19.9860  -25.3450  -13.1970 N   0  0  0  0  0  0  0  0  0  0  0  0
   20.7810  -24.4120  -13.7300 C   0  0  0  0  0  0  0  0  0  0  0  0
   20.5940  -23.9240  -14.8480 O   0  0  0  0  0  0  0  0  0  0  0  0
   20.2230  -25.7010  -12.2820 H   0  0  0  0  0  0  0  0  0  0  0  0
   18.7380  -25.8180  -13.7820 C   0  0  0  0  0  2  0  0  0  0  0  0
   15.3170  -23.3290  -12.7610 C   0  0  0  0  0  0  0  0  0  0  0  0
   16.3420  -23.5470  -11.8160 C   0  0  0  0  0  3  0  0  0  0  0  0
   17.4500  -24.3470  -12.1430 C   0  0  0  0  0  3  0  0  0  0  0  0
   15.4160  -23.9180  -14.0390 C   0  0  0  0  0  3  0  0  0  0  0  0
   16.5260  -24.7190  -14.3660 C   0  0  0  0  0  3  0  0  0  0  0  0
   17.5480  -24.9390  -13.4210 C   0  0  0  0  0  0  0  0  0  0  0  0
   12.2130  -23.8540  -13.4690 C   0  0  0  0  0  1  0  0  0  0  0  0
   12.8340  -22.7270  -12.6680 C   0  0  0  0  0  0  0  0  0  0  0  0
   11.9890  -21.7990  -12.0940 N   0  0  0  0  0  0  0  0  0  0  0  0
   12.5910  -20.8670  -11.1480 C   0  0  0  0  0  2  0  0  0  0  0  0
   14.3690  -21.0950  -11.4160 S   0  0  0  0  0  0  0  0  0  0  0  0
   14.1290  -22.5520  -12.3680 C   0  0  0  0  0  0  0  0  0  0  0  0
   10.9760  -21.8670  -12.1400 H   0  0  0  0  0  0  0  0  0  0  0  0
   23.3390  -22.3020  -10.6120 O   0  0  0  0  0  0  0  0  0  0  0  0
   23.5350  -23.2320  -10.6870 H   0  0  0  0  0  0  0  0  0  0  0  0
   24.8720  -22.9880  -16.4930 C   0  0  1  0  0  0  0  0  0  0  0  0
   26.2080  -22.3920  -16.9970 C   0  0  0  0  0  1  0  0  0  0  0  0
   24.3360  -23.9440  -17.5860 C   0  0  0  0  0  1  0  0  0  0  0  0
   23.8760  -21.8170  -16.3640 C   0  0  0  0  0  1  0  0  0  0  0  0
   24.6730  -28.7000  -16.9930 C   0  0  0  0  0  2  0  0  0  0  0  0
   23.5780  -28.1680  -17.8390 N   0  0  0  0  0  4  0  0  0  0  0  0
   22.9310  -27.6630  -17.2560 H   0  0  0  0  0  0  0  0  0  0  0  0
   24.0190  -27.4790  -18.4310 H   0  0  0  0  0  0  0  0  0  0  0  0
   22.8380  -29.1090  -18.7350 C   0  0  0  0  0  2  0  0  0  0  0  0
   20.4140  -31.1070  -16.5740 C   0  0  0  0  0  0  0  0  0  0  0  0
   19.8210  -30.7020  -15.5730 O   0  0  0  0  0  0  0  0  0  0  0  0
   22.2160  -30.3570  -18.0660 C   0  0  0  0  0  0  0  0  0  0  0  0
   21.1240  -30.1990  -17.2860 N   0  0  0  0  0  0  0  0  0  0  0  0
   22.7560  -31.4420  -18.2900 O   0  0  0  0  0  0  0  0  0  0  0  0
   20.8400  -29.2500  -17.1010 H   0  0  0  0  0  0  0  0  0  0  0  0
   20.3780  -32.6270  -16.8730 C   0  0  0  0  0  2  0  0  0  0  0  0
   20.9260  -33.4650  -15.6840 C   0  0  0  0  0  3  0  0  0  0  0  0
   22.2760  -32.9990  -15.3810 N   0  0  0  0  0  0  0  0  0  0  0  0
   20.9430  -34.9710  -15.9010 C   0  0  0  0  0  0  0  0  0  0  0  0
   20.6590  -35.6240  -17.0350 N   0  0  0  0  0  0  0  0  0  0  0  0
   20.9020  -36.9590  -16.7710 N   0  0  0  0  0  0  0  0  0  0  0  0
   21.3200  -37.0100  -15.5030 C   0  0  0  0  0  0  0  0  0  0  0  0
   21.7560  -38.2750  -14.8280 C   0  0  0  0  0  1  0  0  0  0  0  0
   21.3330  -35.7980  -14.9070 N   0  0  0  0  0  0  0  0  0  0  0  0
   21.6600  -35.4280  -13.5870 C   0  0  0  0  0  0  0  0  0  0  0  0
   21.2250  -36.3090  -12.1560 S   0  0  0  0  0  0  0  0  0  0  0  0
   21.9060  -35.0750  -11.1340 C   0  0  0  0  0  0  0  0  0  0  0  0
   21.8540  -35.2370   -9.6490 C   0  0  0  0  0  1  0  0  0  0  0  0
   22.4250  -34.0270  -11.8620 C   0  0  0  0  0  0  0  0  0  0  0  0
   23.0110  -32.7980  -11.2130 C   0  0  0  0  0  1  0  0  0  0  0  0
   22.3200  -34.2590  -13.2800 C   0  0  0  0  0  0  0  0  0  0  0  0
   22.8820  -33.3290  -14.3070 C   0  0  0  0  0  0  0  0  0  0  0  0
   24.2310  -32.7670  -14.0940 C   0  0  0  0  0  0  0  0  0  0  0  0
   25.2840  -33.5910  -13.6440 C   0  0  0  0  0  3  0  0  0  0  0  0
   26.5610  -33.0440  -13.4170 C   0  0  0  0  0  3  0  0  0  0  0  0
   26.7880  -31.6750  -13.6430 C   0  0  0  0  0  0  0  0  0  0  0  0
   28.3440  -30.9900  -13.3650 Cl  0  0  0  0  0  0  0  0  0  0  0  0
   25.7410  -30.8580  -14.0940 C   0  0  0  0  0  3  0  0  0  0  0  0
   24.4620  -31.3970  -14.3210 C   0  0  0  0  0  3  0  0  0  0  0  0
  1  2  1  0
  2  8  1  0
  2  4  1  0
  3  1  2  0
  5 11  1  0
  5  6  1  0
  6  7  2  0
  8  6  1  0
  8 10  1  0
  9  5  1  0
 11 17  1  0
 12 20  1  0
 12 13  1  0
 13 14  1  0
 14 37  1  0
 15 14  1  0
 16 15  1  0
 16 12  1  0
 17 16  1  0
 18 17  2  0
 19 22  1  0
 20 19  1  0
 21 20  2  0
 23 29  1  0
 23 19  1  0
 24 35  1  0
 24 25  1  0
 26 25  2  0
 27 24  2  0
 28 27  1  0
 28 29  2  0
 29 26  1  0
 30 31  1  0
 31 35  2  0
 31 32  1  0
 32 33  1  0
 34 33  1  0
 35 34  1  0
 36 32  1  0
 38 37  1  0
 39 42  1  1
 39 11  1  0
 40 39  1  0
 41 39  1  0
 43  1  1  0
 44 45  1  0
 44 43  1  0
 46 44  1  0
 47 50  1  0
 47 44  1  0
 48 49  2  0
 50 51  1  0
 51 53  1  0
 51 48  1  0
 52 50  2  0
 54 48  1  0
 55 54  1  0
 55 56  1  0
 56 70  2  0
 57 55  1  0
 57 62  1  0
 58 59  1  0
 58 57  2  0
 59 60  2  0
 60 62  1  0
 60 61  1  0
 62 63  1  0
 63 69  2  0
 63 64  1  0
 64 65  1  0
 65 66  1  0
 67 68  1  0
 67 65  2  0
 69 67  1  0
 70 71  1  0
 70 69  1  0
 71 72  1  0
 72 73  2  0
 74 73  1  0
 74 75  1  0
 76 74  2  0
 77 71  2  0
 77 76  1  0
M  ISO  4   6 101   8 101  48 100  51 100
M  END
>  <TORSDO>  (23) 
F 16

>  <SCORE>  (23) 
-12.366

>  <name>  (23) 
22

>  <ligand_id>  (23) 
22

>  <original_smiles>  (23) 
[H]OC1([H])C([H])([H])N(C(=O)C([H])(N([H])C(=O)N([H])N([H])C(=O)C([H])([H])[N+]([H])([H])C([H])([H])C(=O)N([H])C(=O)C([H])([H])C2([H])N=C(c3c([H])c([H])c(Cl)c([H])c3[H])c3c(sc(C([H])([H])[H])c3C([H])([H])[H])-n3c(C([H])([H])[H])nnc32)C(C([H])([H])[H])(C([H])([H])[H])C([H])([H])[H])C([H])(C(=O)N([H])C([H])([H])c2c([H])c([H])c(C3=C(C([H])([H])[H])N([H])C([H])([H])S3)c([H])c2[H])C1([H])[H]

>  <smiles>  (23) 
[H]OC1([H])C([H])([H])N(C(=O)C([H])(N([H])C(=O)N([H])N([H])C(=O)C([H])([H])[N+]([H])([H])C([H])([H])C(=O)N([H])C(=O)C([H])([H])C2([H])N=C(c3c([H])c([H])c(Cl)c([H])c3[H])c3c(sc(C([H])([H])[H])c3C([H])([H])[H])-n3c(C([H])([H])[H])nnc32)C(C([H])([H])[H])(C([H])([H])[H])C([H])([H])[H])C([H])(C(=O)N([H])C([H])([H])c2c([H])c([H])c(C3=C(C([H])([H])[H])N([H])C([H])([H])S3)c([H])c2[H])C1([H])[H]

$$$$
23:0:0
     RDKit          3D

 77 85  0  0  1  0  0  0  0  0999 V2000
   24.9830  -28.0060  -16.9330 C   0  0  0  0  0  3  0  0  0  0  0  0
   23.5670  -28.4910  -16.5420 C   0  0  0  0  0  3  0  0  0  0  0  0
   25.3910  -27.3100  -15.6300 C   0  0  0  0  0  3  0  0  0  0  0  0
   21.8430  -29.5090  -17.8340 C   0  0  0  0  0  3  0  0  0  0  0  0
   22.0170  -28.8340  -19.2230 C   0  0  0  0  0  3  0  0  0  0  0  0
   24.8070  -27.0290  -17.9500 O   0  0  0  0  0  0  0  0  0  0  0  0
   23.1250  -29.6390  -17.2770 O   0  0  0  0  0  0  0  0  0  0  0  0
   23.5830  -28.6970  -15.1370 O   0  0  0  0  0  0  0  0  0  0  0  0
   24.9060  -28.1860  -14.6340 O   0  0  0  0  0  0  0  0  0  0  0  0
   22.6090  -27.5380  -19.1230 O   0  0  0  0  0  0  0  0  0  0  0  0
   24.1150  -27.6720  -19.1220 O   0  0  0  0  0  0  0  0  0  0  0  0
   22.6930  -29.6930  -20.1260 O   0  0  0  0  0  0  0  0  0  0  0  0
   23.3710  -30.1210  -19.6140 H   0  0  0  0  0  0  0  0  0  0  0  0
   26.7060  -26.7440  -15.3260 O   0  0  0  0  0  0  0  0  0  0  0  0
   25.9940  -24.6520  -15.7070 N   0  0  0  0  0  0  0  0  0  0  0  0
   26.8110  -25.4100  -14.9170 C   0  0  0  0  0  0  0  0  0  0  0  0
   27.4620  -24.9690  -13.9600 O   0  0  0  0  0  0  0  0  0  0  0  0
   25.7280  -25.0930  -16.5720 H   0  0  0  0  0  0  0  0  0  0  0  0
   25.0880  -23.5890  -15.3110 C   0  0  0  0  0  3  0  0  0  0  0  0
   21.8920  -24.0010  -13.0360 C   0  0  0  0  0  3  0  0  0  0  0  0
   21.3750  -22.8010  -12.2310 C   0  0  0  0  0  2  0  0  0  0  0  0
   22.6140  -21.9760  -11.9500 C   0  0  0  0  0  3  0  0  0  0  0  0
   23.5430  -22.2360  -13.1350 C   0  0  0  0  0  2  0  0  0  0  0  0
   23.1110  -23.5090  -13.7130 N   0  0  0  0  0  0  0  0  0  0  0  0
   23.8030  -24.2000  -14.6480 C   0  0  0  0  0  0  0  0  0  0  0  0
   23.4340  -25.3300  -14.9710 O   0  0  0  0  0  0  0  0  0  0  0  0
   20.0160  -25.5100  -13.4520 N   0  0  0  0  0  0  0  0  0  0  0  0
   20.7700  -24.5250  -13.9520 C   0  0  0  0  0  0  0  0  0  0  0  0
   20.5620  -24.0120  -15.0550 O   0  0  0  0  0  0  0  0  0  0  0  0
   20.2680  -25.8870  -12.5490 H   0  0  0  0  0  0  0  0  0  0  0  0
   18.7880  -26.0150  -14.0550 C   0  0  0  0  0  2  0  0  0  0  0  0
   15.2700  -23.6980  -12.9560 C   0  0  0  0  0  0  0  0  0  0  0  0
   16.3070  -23.8990  -12.0210 C   0  0  0  0  0  3  0  0  0  0  0  0
   17.4450  -24.6440  -12.3740 C   0  0  0  0  0  3  0  0  0  0  0  0
   15.3870  -24.2480  -14.2490 C   0  0  0  0  0  3  0  0  0  0  0  0
   16.5280  -24.9940  -14.6020 C   0  0  0  0  0  3  0  0  0  0  0  0
   17.5630  -25.1970  -13.6670 C   0  0  0  0  0  0  0  0  0  0  0  0
   12.1860  -24.3280  -13.6670 C   0  0  0  0  0  1  0  0  0  0  0  0
   12.7650  -23.1990  -12.8370 C   0  0  0  0  0  0  0  0  0  0  0  0
   11.8850  -22.3220  -12.2350 N   0  0  0  0  0  0  0  0  0  0  0  0
   12.4530  -21.3930  -11.2650 C   0  0  0  0  0  2  0  0  0  0  0  0
   14.2380  -21.5410  -11.5470 S   0  0  0  0  0  0  0  0  0  0  0  0
   14.0530  -22.9810  -12.5380 C   0  0  0  0  0  0  0  0  0  0  0  0
   10.8760  -22.4280  -12.2810 H   0  0  0  0  0  0  0  0  0  0  0  0
   23.2480  -22.4290  -10.7650 O   0  0  0  0  0  0  0  0  0  0  0  0
   23.4730  -23.3480  -10.8730 H   0  0  0  0  0  0  0  0  0  0  0  0
   24.8040  -22.8000  -16.6360 C   0  0  1  0  0  0  0  0  0  0  0  0
   26.1110  -22.1080  -17.0950 C   0  0  0  0  0  1  0  0  0  0  0  0
   24.3150  -23.7020  -17.8000 C   0  0  0  0  0  1  0  0  0  0  0  0
   23.7560  -21.6930  -16.4170 C   0  0  0  0  0  1  0  0  0  0  0  0
   21.2400  -30.7550  -18.0800 O   0  0  0  0  0  0  0  0  0  0  0  0
   20.5560  -31.3740  -17.0770 C   0  0  0  0  0  0  0  0  0  0  0  0
   20.0960  -30.8660  -16.0490 O   0  0  0  0  0  0  0  0  0  0  0  0
   20.5610  -32.8900  -17.2920 C   0  0  0  0  0  2  0  0  0  0  0  0
   21.0820  -33.6530  -16.0480 C   0  0  0  0  0  3  0  0  0  0  0  0
   22.4380  -33.2160  -15.7060 N   0  0  0  0  0  0  0  0  0  0  0  0
   21.0590  -35.1640  -16.1990 C   0  0  0  0  0  0  0  0  0  0  0  0
   20.8360  -35.8550  -17.3240 N   0  0  0  0  0  0  0  0  0  0  0  0
   21.0110  -37.1840  -16.9870 N   0  0  0  0  0  0  0  0  0  0  0  0
   21.3400  -37.1910  -15.6900 C   0  0  0  0  0  0  0  0  0  0  0  0
   21.6790  -38.4370  -14.9310 C   0  0  0  0  0  1  0  0  0  0  0  0
   21.3600  -35.9540  -15.1500 N   0  0  0  0  0  0  0  0  0  0  0  0
   21.6170  -35.5300  -13.8310 C   0  0  0  0  0  0  0  0  0  0  0  0
   21.0520  -36.3190  -12.3950 S   0  0  0  0  0  0  0  0  0  0  0  0
   21.7150  -35.0600  -11.3900 C   0  0  0  0  0  0  0  0  0  0  0  0
   21.5560  -35.1450   -9.9060 C   0  0  0  0  0  1  0  0  0  0  0  0
   22.3240  -34.0700  -12.1320 C   0  0  0  0  0  0  0  0  0  0  0  0
   22.9130  -32.8330  -11.5040 C   0  0  0  0  0  1  0  0  0  0  0  0
   22.3030  -34.3700  -13.5410 C   0  0  0  0  0  0  0  0  0  0  0  0
   22.9680  -33.5150  -14.5770 C   0  0  0  0  0  0  0  0  0  0  0  0
   24.3280  -33.0030  -14.2940 C   0  0  0  0  0  0  0  0  0  0  0  0
   25.2920  -33.8260  -13.6760 C   0  0  0  0  0  3  0  0  0  0  0  0
   26.5720  -33.3170  -13.3840 C   0  0  0  0  0  3  0  0  0  0  0  0
   26.8910  -31.9850  -13.7030 C   0  0  0  0  0  0  0  0  0  0  0  0
   28.4500  -31.3430  -13.3460 Cl  0  0  0  0  0  0  0  0  0  0  0  0
   25.9320  -31.1650  -14.3130 C   0  0  0  0  0  3  0  0  0  0  0  0
   24.6550  -31.6740  -14.6140 C   0  0  0  0  0  3  0  0  0  0  0  0
  1  6  1  0
  1  2  1  0
  1  3  1  0
  2  7  1  0
  2  8  1  0
  3 14  1  0
  3  9  1  0
  4 51  1  0
  4  7  1  0
  5 12  1  0
  5 10  1  0
  5  4  1  0
  8  9  1  0
 10 11  1  0
 11  6  1  0
 12 13  1  0
 14 16  1  0
 15 19  1  0
 15 16  1  0
 16 17  2  0
 18 15  1  0
 19 25  1  0
 20 28  1  0
 20 21  1  0
 21 22  1  0
 22 45  1  0
 23 22  1  0
 24 23  1  0
 24 20  1  0
 25 24  1  0
 26 25  2  0
 27 30  1  0
 28 27  1  0
 29 28  2  0
 31 37  1  0
 31 27  1  0
 32 43  1  0
 32 33  1  0
 34 33  2  0
 35 32  2  0
 36 35  1  0
 36 37  2  0
 37 34  1  0
 38 39  1  0
 39 43  2  0
 39 40  1  0
 40 41  1  0
 42 41  1  0
 43 42  1  0
 44 40  1  0
 46 45  1  0
 47 50  1  1
 47 19  1  0
 48 47  1  0
 49 47  1  0
 51 52  1  0
 52 53  2  0
 54 52  1  0
 55 54  1  0
 55 56  1  0
 56 70  2  0
 57 55  1  0
 57 62  1  0
 58 59  1  0
 58 57  2  0
 59 60  2  0
 60 62  1  0
 60 61  1  0
 62 63  1  0
 63 69  2  0
 63 64  1  0
 64 65  1  0
 65 66  1  0
 67 68  1  0
 67 65  2  0
 69 67  1  0
 70 71  1  0
 70 69  1  0
 71 72  1  0
 72 73  2  0
 74 73  1  0
 74 75  1  0
 76 74  2  0
 77 76  1  0
 77 71  2  0
M  ISO  4  14 101  16 101  51 100  52 100
M  END
>  <TORSDO>  (24) 
F 16

>  <SCORE>  (24) 
-13.198

>  <name>  (24) 
23

>  <ligand_id>  (24) 
23

>  <original_smiles>  (24) 
[H]OC1([H])OOOC2([H])C([H])(OC(=O)N([H])C([H])(C(=O)N3C([H])([H])C([H])(O[H])C([H])([H])C3([H])C(=O)N([H])C([H])([H])c3c([H])c([H])c(C4=C(C([H])([H])[H])N([H])C([H])([H])S4)c([H])c3[H])C(C([H])([H])[H])(C([H])([H])[H])C([H])([H])[H])OOC2([H])OC1([H])OC(=O)C([H])([H])C1([H])N=C(c2c([H])c([H])c(Cl)c([H])c2[H])c2c(sc(C([H])([H])[H])c2C([H])([H])[H])-n2c(C([H])([H])[H])nnc21

>  <smiles>  (24) 
[H]OC1([H])OOOC2([H])C([H])(OC(=O)N([H])C([H])(C(=O)N3C([H])([H])C([H])(O[H])C([H])([H])C3([H])C(=O)N([H])C([H])([H])c3c([H])c([H])c(C4=C(C([H])([H])[H])N([H])C([H])([H])S4)c([H])c3[H])C(C([H])([H])[H])(C([H])([H])[H])C([H])([H])[H])OOC2([H])OC1([H])OC(=O)C([H])([H])C1([H])N=C(c2c([H])c([H])c(Cl)c([H])c2[H])c2c(sc(C([H])([H])[H])c2C([H])([H])[H])-n2c(C([H])([H])[H])nnc21

$$$$
24:0:0
     RDKit          3D

 82 88  0  0  1  0  0  0  0  0999 V2000
   23.5750  -28.3120  -15.1470 C   0  0  0  0  0  0  0  0  0  0  0  0
   22.7120  -28.8290  -14.2650 N   0  0  0  0  0  4  0  0  0  0  0  0
   23.3220  -28.4480  -16.4650 N   0  0  0  0  0  0  0  0  0  0  0  0
   24.7040  -27.6930  -14.7310 N   0  0  0  0  0  0  0  0  0  0  0  0
   21.8840  -29.2750  -14.6310 H   0  0  0  0  0  0  0  0  0  0  0  0
   22.8230  -28.7450  -13.2660 H   0  0  0  0  0  0  0  0  0  0  0  0
   23.9530  -28.0220  -17.1310 H   0  0  0  0  0  0  0  0  0  0  0  0
   24.9480  -27.5820  -13.7570 H   0  0  0  0  0  0  0  0  0  0  0  0
   22.1890  -29.0950  -18.2340 C   0  0  0  0  0  3  0  0  0  0  0  0
   23.0340  -28.1300  -19.0860 C   0  0  0  0  0  1  0  0  0  0  0  0
   22.2440  -29.1870  -16.9380 N   0  0  0  0  0  2  0  0  0  0  0  0
   20.8110  -31.9110  -17.4990 C   0  0  0  0  0  0  0  0  0  0  0  0
   20.4260  -31.3160  -16.4850 O   0  0  0  0  0  0  0  0  0  0  0  0
   21.3020  -29.9740  -19.0620 C   0  0  0  0  0  0  0  0  0  0  0  0
   20.9660  -31.2610  -18.7720 N   0  0  0  0  0  0  0  0  0  0  0  0
   20.9070  -29.4940  -20.2570 N   0  0  0  0  0  4  0  0  0  0  0  0
   20.9900  -31.8360  -19.5960 H   0  0  0  0  0  0  0  0  0  0  0  0
   20.2870  -29.9900  -20.8780 H   0  0  0  0  0  0  0  0  0  0  0  0
   21.1800  -28.5610  -20.5260 H   0  0  0  0  0  0  0  0  0  0  0  0
   21.1230  -33.4150  -17.5060 C   0  0  0  0  0  2  0  0  0  0  0  0
   21.5780  -33.9670  -16.1290 C   0  0  0  0  0  3  0  0  0  0  0  0
   22.8940  -33.4220  -15.7890 N   0  0  0  0  0  0  0  0  0  0  0  0
   21.6220  -35.4840  -16.0630 C   0  0  0  0  0  0  0  0  0  0  0  0
   21.4690  -36.3330  -17.0870 N   0  0  0  0  0  0  0  0  0  0  0  0
   21.6690  -37.5950  -16.5610 N   0  0  0  0  0  0  0  0  0  0  0  0
   21.9400  -37.4120  -15.2650 C   0  0  0  0  0  0  0  0  0  0  0  0
   22.2800  -38.5290  -14.3260 C   0  0  0  0  0  1  0  0  0  0  0  0
   21.8970  -36.1110  -14.9010 N   0  0  0  0  0  0  0  0  0  0  0  0
   22.0790  -35.5000  -13.6450 C   0  0  0  0  0  0  0  0  0  0  0  0
   21.4770  -36.1110  -12.1380 S   0  0  0  0  0  0  0  0  0  0  0  0
   22.0500  -34.7040  -11.2890 C   0  0  0  0  0  0  0  0  0  0  0  0
   21.8290  -34.5950   -9.8140 C   0  0  0  0  0  1  0  0  0  0  0  0
   22.6570  -33.8000  -12.1340 C   0  0  0  0  0  0  0  0  0  0  0  0
   23.1770  -32.4690  -11.6530 C   0  0  0  0  0  1  0  0  0  0  0  0
   22.7080  -34.2840  -13.4910 C   0  0  0  0  0  0  0  0  0  0  0  0
   23.3840  -33.5440  -14.6090 C   0  0  0  0  0  0  0  0  0  0  0  0
   24.7110  -32.9410  -14.3510 C   0  0  0  0  0  0  0  0  0  0  0  0
   25.6600  -33.6190  -13.5550 C   0  0  0  0  0  3  0  0  0  0  0  0
   26.9100  -33.0280  -13.2870 C   0  0  0  0  0  3  0  0  0  0  0  0
   27.2180  -31.7630  -13.8180 C   0  0  0  0  0  0  0  0  0  0  0  0
   28.7400  -31.0270  -13.4850 Cl  0  0  0  0  0  0  0  0  0  0  0  0
   26.2870  -31.0980  -14.6310 C   0  0  0  0  0  3  0  0  0  0  0  0
   25.0340  -31.6810  -14.8970 C   0  0  0  0  0  3  0  0  0  0  0  0
   25.6330  -27.2320  -15.6610 O   0  0  0  0  0  0  0  0  0  0  0  0
   25.6110  -24.6860  -15.9510 N   0  0  0  0  0  0  0  0  0  0  0  0
   26.5290  -25.0970  -15.0770 C   0  0  0  0  0  0  0  0  0  0  0  0
   27.1000  -24.3610  -14.2700 O   0  0  0  0  0  0  0  0  0  0  0  0
   26.6330  -26.4350  -15.0420 N   0  0  0  0  0  0  0  0  0  0  0  0
   25.2590  -25.4240  -16.5390 H   0  0  0  0  0  0  0  0  0  0  0  0
   27.2700  -26.9860  -14.4790 H   0  0  0  0  0  0  0  0  0  0  0  0
   24.6660  -23.5900  -15.7250 C   0  0  0  0  0  3  0  0  0  0  0  0
   21.7220  -24.1100  -13.1650 C   0  0  0  0  0  3  0  0  0  0  0  0
   21.3450  -22.9800  -12.1960 C   0  0  0  0  0  2  0  0  0  0  0  0
   22.6350  -22.2160  -11.9870 C   0  0  0  0  0  3  0  0  0  0  0  0
   23.4130  -22.3910  -13.2910 C   0  0  0  0  0  2  0  0  0  0  0  0
   22.8730  -23.5940  -13.9350 N   0  0  0  0  0  0  0  0  0  0  0  0
   23.4340  -24.2170  -15.0020 C   0  0  0  0  0  0  0  0  0  0  0  0
   23.0250  -25.3140  -15.3960 O   0  0  0  0  0  0  0  0  0  0  0  0
   19.7000  -25.4410  -13.4510 N   0  0  0  0  0  0  0  0  0  0  0  0
   20.4870  -24.5070  -13.9930 C   0  0  0  0  0  0  0  0  0  0  0  0
   20.2300  -23.9390  -15.0560 O   0  0  0  0  0  0  0  0  0  0  0  0
   19.9950  -25.8660  -12.5830 H   0  0  0  0  0  0  0  0  0  0  0  0
   18.3870  -25.8260  -13.9540 C   0  0  0  0  0  2  0  0  0  0  0  0
   15.2090  -23.1430  -12.6690 C   0  0  0  0  0  0  0  0  0  0  0  0
   16.2860  -23.4290  -11.8060 C   0  0  0  0  0  3  0  0  0  0  0  0
   17.3150  -24.2940  -12.2170 C   0  0  0  0  0  3  0  0  0  0  0  0
   15.1760  -23.7250  -13.9530 C   0  0  0  0  0  3  0  0  0  0  0  0
   16.2070  -24.5910  -14.3660 C   0  0  0  0  0  3  0  0  0  0  0  0
   17.2830  -24.8800  -13.5020 C   0  0  0  0  0  0  0  0  0  0  0  0
   12.0330  -23.4840  -13.1250 C   0  0  0  0  0  1  0  0  0  0  0  0
   12.7810  -22.3970  -12.3810 C   0  0  0  0  0  0  0  0  0  0  0  0
   12.0390  -21.4230  -11.7430 N   0  0  0  0  0  0  0  0  0  0  0  0
   12.7670  -20.5290  -10.8490 C   0  0  0  0  0  2  0  0  0  0  0  0
   14.5030  -20.8590  -11.2590 S   0  0  0  0  0  0  0  0  0  0  0  0
   14.1030  -22.2990  -12.1850 C   0  0  0  0  0  0  0  0  0  0  0  0
   11.0240  -21.4310  -11.7070 H   0  0  0  0  0  0  0  0  0  0  0  0
   23.3800  -22.7890  -10.9250 O   0  0  0  0  0  0  0  0  0  0  0  0
   23.5600  -23.6980  -11.1370 H   0  0  0  0  0  0  0  0  0  0  0  0
   24.3070  -22.9390  -17.1110 C   0  0  1  0  0  0  0  0  0  0  0  0
   25.5550  -22.2060  -17.6500 C   0  0  0  0  0  1  0  0  0  0  0  0
   23.8560  -23.9660  -18.1780 C   0  0  0  0  0  1  0  0  0  0  0  0
   23.1880  -21.8820  -16.9690 C   0  0  0  0  0  1  0  0  0  0  0  0
  1  4  1  0
  1  2  2  0
  2  6  1  0
  3  1  1  0
  4  8  1  0
  5  2  1  0
  7  3  1  0
  9 10  1  0
  9 11  1  0
 11  3  1  0
 12 13  2  0
 14 15  1  0
 14  9  1  0
 15 12  1  0
 16 14  2  0
 17 15  1  0
 18 16  1  0
 19 16  1  0
 20 12  1  0
 21 20  1  0
 21 23  1  0
 21 22  1  0
 22 36  2  0
 23 28  1  0
 24 25  1  0
 24 23  2  0
 25 26  2  0
 26 28  1  0
 26 27  1  0
 28 29  1  0
 29 35  2  0
 29 30  1  0
 30 31  1  0
 31 32  1  0
 33 34  1  0
 33 31  2  0
 35 33  1  0
 36 37  1  0
 36 35  1  0
 37 38  1  0
 38 39  2  0
 40 41  1  0
 40 39  1  0
 42 40  2  0
 43 42  1  0
 43 37  2  0
 44 48  1  0
 44  4  1  0
 45 51  1  0
 45 46  1  0
 46 48  1  0
 46 47  2  0
 48 50  1  0
 49 45  1  0
 51 57  1  0
 52 60  1  0
 52 53  1  0
 53 54  1  0
 54 77  1  0
 55 54  1  0
 56 55  1  0
 56 52  1  0
 57 56  1  0
 58 57  2  0
 59 62  1  0
 60 59  1  0
 61 60  2  0
 63 69  1  0
 63 59  1  0
 64 75  1  0
 64 65  1  0
 66 65  2  0
 67 64  2  0
 68 67  1  0
 68 69  2  0
 69 66  1  0
 70 71  1  0
 71 75  2  0
 71 72  1  0
 72 76  1  0
 72 73  1  0
 74 73  1  0
 75 74  1  0
 78 77  1  0
 79 82  1  1
 79 51  1  0
 80 79  1  0
 81 79  1  0
M  ISO  4  12 100  15 100  46 101  48 101
M  END
>  <TORSDO>  (25) 
F 15

>  <SCORE>  (25) 
-13.741

>  <name>  (25) 
24

>  <ligand_id>  (25) 
24

>  <original_smiles>  (25) 
[H]OC1([H])C([H])([H])N(C(=O)C([H])(N([H])C(=O)N([H])O[N+]([H])=C(N([H])[H])N([H])N=C(C(N([H])C(=O)C([H])([H])C2([H])N=C(c3c([H])c([H])c(Cl)c([H])c3[H])c3c(sc(C([H])([H])[H])c3C([H])([H])[H])-n3c(C([H])([H])[H])nnc32)=[N+]([H])[H])C([H])([H])[H])C(C([H])([H])[H])(C([H])([H])[H])C([H])([H])[H])C([H])(C(=O)N([H])C([H])([H])c2c([H])c([H])c(C3=C(C([H])([H])[H])N([H])C([H])([H])S3)c([H])c2[H])C1([H])[H]

>  <smiles>  (25) 
[H]OC1([H])C([H])([H])N(C(=O)C([H])(N([H])C(=O)N([H])O[N+]([H])=C(N([H])[H])N([H])N=C(C(N([H])C(=O)C([H])([H])C2([H])N=C(c3c([H])c([H])c(Cl)c([H])c3[H])c3c(sc(C([H])([H])[H])c3C([H])([H])[H])-n3c(C([H])([H])[H])nnc32)=[N+]([H])[H])C([H])([H])[H])C(C([H])([H])[H])(C([H])([H])[H])C([H])([H])[H])C([H])(C(=O)N([H])C([H])([H])c2c([H])c([H])c(C3=C(C([H])([H])[H])N([H])C([H])([H])S3)c([H])c2[H])C1([H])[H]

$$$$
25:0:0
     RDKit          3D

 78 84  0  0  1  0  0  0  0  0999 V2000
   24.9470  -27.6410  -15.7640 C   0  0  0  0  0  0  0  0  0  0  0  0
   25.9970  -27.0610  -16.3850 N   0  0  0  0  0  0  0  0  0  0  0  0
   25.0230  -27.9450  -14.5680 O   0  0  0  0  0  0  0  0  0  0  0  0
   26.0080  -26.8180  -17.3670 H   0  0  0  0  0  0  0  0  0  0  0  0
   25.6090  -24.4840  -16.1070 N   0  0  0  0  0  0  0  0  0  0  0  0
   26.5920  -24.9510  -15.3330 C   0  0  0  0  0  0  0  0  0  0  0  0
   27.0980  -24.3110  -14.4100 O   0  0  0  0  0  0  0  0  0  0  0  0
   26.8950  -26.2330  -15.6190 N   0  0  0  0  0  0  0  0  0  0  0  0
   25.3310  -25.0860  -16.8600 H   0  0  0  0  0  0  0  0  0  0  0  0
   27.5410  -26.7820  -15.0630 H   0  0  0  0  0  0  0  0  0  0  0  0
   24.6290  -23.4520  -15.7970 C   0  0  0  0  0  3  0  0  0  0  0  0
   21.8080  -24.1430  -13.1310 C   0  0  0  0  0  3  0  0  0  0  0  0
   21.4240  -23.0490  -12.1260 C   0  0  0  0  0  2  0  0  0  0  0  0
   22.6920  -22.2350  -11.9530 C   0  0  0  0  0  3  0  0  0  0  0  0
   23.4270  -22.3460  -13.2840 C   0  0  0  0  0  2  0  0  0  0  0  0
   22.9110  -23.5550  -13.9250 N   0  0  0  0  0  0  0  0  0  0  0  0
   23.4580  -24.1250  -15.0180 C   0  0  0  0  0  0  0  0  0  0  0  0
   23.0490  -25.2090  -15.4030 O   0  0  0  0  0  0  0  0  0  0  0  0
   19.7900  -25.5120  -13.3240 N   0  0  0  0  0  0  0  0  0  0  0  0
   20.5530  -24.5830  -13.9110 C   0  0  0  0  0  0  0  0  0  0  0  0
   20.2610  -24.0520  -14.9850 O   0  0  0  0  0  0  0  0  0  0  0  0
   20.1170  -25.9120  -12.4560 H   0  0  0  0  0  0  0  0  0  0  0  0
   18.4700  -25.9280  -13.7830 C   0  0  0  0  0  2  0  0  0  0  0  0
   15.3200  -23.1590  -12.6180 C   0  0  0  0  0  0  0  0  0  0  0  0
   16.4250  -23.3720  -11.7680 C   0  0  0  0  0  3  0  0  0  0  0  0
   17.4450  -24.2670  -12.1420 C   0  0  0  0  0  3  0  0  0  0  0  0
   15.2490  -23.8420  -13.8500 C   0  0  0  0  0  3  0  0  0  0  0  0
   16.2710  -24.7370  -14.2230 C   0  0  0  0  0  3  0  0  0  0  0  0
   17.3730  -24.9530  -13.3740 C   0  0  0  0  0  0  0  0  0  0  0  0
   12.1310  -23.5460  -12.9340 C   0  0  0  0  0  1  0  0  0  0  0  0
   12.8980  -22.3970  -12.3100 C   0  0  0  0  0  0  0  0  0  0  0  0
   12.1730  -21.3770  -11.7310 N   0  0  0  0  0  0  0  0  0  0  0  0
   12.9260  -20.4080  -10.9420 C   0  0  0  0  0  2  0  0  0  0  0  0
   14.6510  -20.7670  -11.3810 S   0  0  0  0  0  0  0  0  0  0  0  0
   14.2250  -22.2790  -12.1690 C   0  0  0  0  0  0  0  0  0  0  0  0
   11.1590  -21.3830  -11.6600 H   0  0  0  0  0  0  0  0  0  0  0  0
   23.5030  -22.8000  -10.9380 O   0  0  0  0  0  0  0  0  0  0  0  0
   23.7210  -23.6940  -11.1860 H   0  0  0  0  0  0  0  0  0  0  0  0
   24.1770  -22.8380  -17.1710 C   0  0  1  0  0  0  0  0  0  0  0  0
   25.3430  -21.9930  -17.7330 C   0  0  0  0  0  1  0  0  0  0  0  0
   23.8040  -23.8950  -18.2430 C   0  0  0  0  0  1  0  0  0  0  0  0
   22.9710  -21.8930  -16.9950 C   0  0  0  0  0  1  0  0  0  0  0  0
   23.5820  -27.7210  -16.5010 C   0  0  0  0  0  3  0  0  0  0  0  0
   23.5330  -28.6840  -17.6960 C   0  0  0  0  0  0  0  0  0  0  0  0
   22.3390  -29.2780  -17.7960 N   0  0  0  0  0  0  0  0  0  0  0  0
   24.4300  -28.7760  -18.5390 O   0  0  0  0  0  0  0  0  0  0  0  0
   21.7950  -29.2130  -16.9380 H   0  0  0  0  0  0  0  0  0  0  0  0
   21.6500  -29.8090  -18.9560 C   0  0  0  0  0  2  0  0  0  0  0  0
   20.7870  -31.7750  -17.6490 C   0  0  0  0  0  0  0  0  0  0  0  0
   20.3340  -31.1760  -16.6650 O   0  0  0  0  0  0  0  0  0  0  0  0
   21.2530  -31.1920  -18.7640 N   0  0  0  0  0  0  0  0  0  0  0  0
   21.4950  -31.8140  -19.5270 H   0  0  0  0  0  0  0  0  0  0  0  0
   20.9960  -33.2810  -17.6280 C   0  0  0  0  0  2  0  0  0  0  0  0
   21.4960  -33.8240  -16.2700 C   0  0  0  0  0  3  0  0  0  0  0  0
   22.8480  -33.3380  -15.9600 N   0  0  0  0  0  0  0  0  0  0  0  0
   21.4720  -35.3360  -16.2230 C   0  0  0  0  0  0  0  0  0  0  0  0
   21.2670  -36.1650  -17.2560 N   0  0  0  0  0  0  0  0  0  0  0  0
   21.4090  -37.4380  -16.7450 N   0  0  0  0  0  0  0  0  0  0  0  0
   21.7070  -37.2780  -15.4520 C   0  0  0  0  0  0  0  0  0  0  0  0
   21.9980  -38.4210  -14.5290 C   0  0  0  0  0  1  0  0  0  0  0  0
   21.7340  -35.9820  -15.0740 N   0  0  0  0  0  0  0  0  0  0  0  0
   21.9640  -35.3880  -13.8180 C   0  0  0  0  0  0  0  0  0  0  0  0
   21.3460  -35.9740  -12.3100 S   0  0  0  0  0  0  0  0  0  0  0  0
   22.0040  -34.6040  -11.4620 C   0  0  0  0  0  0  0  0  0  0  0  0
   21.8080  -34.4930   -9.9860 C   0  0  0  0  0  1  0  0  0  0  0  0
   22.6480  -33.7250  -12.3070 C   0  0  0  0  0  0  0  0  0  0  0  0
   23.2460  -32.4270  -11.8220 C   0  0  0  0  0  1  0  0  0  0  0  0
   22.6530  -34.2030  -13.6670 C   0  0  0  0  0  0  0  0  0  0  0  0
   23.3480  -33.4890  -14.7890 C   0  0  0  0  0  0  0  0  0  0  0  0
   24.7130  -32.9620  -14.5410 C   0  0  0  0  0  0  0  0  0  0  0  0
   25.6040  -33.6710  -13.7030 C   0  0  0  0  0  3  0  0  0  0  0  0
   26.8890  -33.1610  -13.4360 C   0  0  0  0  0  3  0  0  0  0  0  0
   27.2990  -31.9520  -14.0240 C   0  0  0  0  0  0  0  0  0  0  0  0
   28.8640  -31.3020  -13.7120 Cl  0  0  0  0  0  0  0  0  0  0  0  0
   26.4320  -31.2740  -14.8870 C   0  0  0  0  0  3  0  0  0  0  0  0
   25.1320  -31.7560  -15.1340 C   0  0  0  0  0  3  0  0  0  0  0  0
   22.5070  -28.0000  -15.5870 O   0  0  0  0  0  0  0  0  0  0  0  0
   21.7710  -27.4700  -15.8720 H   0  0  0  0  0  0  0  0  0  0  0  0
  1  3  2  0
  2  1  1  0
  2  8  1  0
  4  2  1  0
  5 11  1  0
  5  6  1  0
  6  7  2  0
  8  6  1  0
  8 10  1  0
  9  5  1  0
 11 17  1  0
 12 20  1  0
 12 13  1  0
 13 14  1  0
 14 37  1  0
 15 14  1  0
 16 15  1  0
 16 12  1  0
 17 16  1  0
 18 17  2  0
 19 22  1  0
 20 19  1  0
 21 20  2  0
 23 29  1  0
 23 19  1  0
 24 35  1  0
 24 25  1  0
 26 25  2  0
 27 24  2  0
 28 27  1  0
 28 29  2  0
 29 26  1  0
 30 31  1  0
 31 35  2  0
 31 32  1  0
 32 36  1  0
 32 33  1  0
 34 33  1  0
 35 34  1  0
 38 37  1  0
 39 42  1  1
 39 11  1  0
 40 39  1  0
 41 39  1  0
 43 44  1  0
 43  1  1  0
 43 77  1  0
 45 44  1  0
 45 47  1  0
 46 44  2  0
 48 51  1  0
 48 45  1  0
 49 53  1  0
 49 50  2  0
 51 49  1  0
 52 51  1  0
 54 53  1  0
 54 56  1  0
 54 55  1  0
 55 69  2  0
 56 61  1  0
 57 58  1  0
 57 56  2  0
 58 59  2  0
 59 61  1  0
 59 60  1  0
 61 62  1  0
 62 68  2  0
 62 63  1  0
 63 64  1  0
 64 65  1  0
 66 67  1  0
 66 64  2  0
 68 66  1  0
 69 70  1  0
 69 68  1  0
 70 71  1  0
 71 72  2  0
 73 74  1  0
 73 72  1  0
 75 73  2  0
 76 75  1  0
 76 70  2  0
 78 77  1  0
M  ISO  4   6 101   8 101  49 100  51 100
M  END
>  <TORSDO>  (26) 
F 17

>  <SCORE>  (26) 
-12.505

>  <name>  (26) 
25

>  <ligand_id>  (26) 
25

>  <original_smiles>  (26) 
[H]OC([H])(C(=O)N([H])N([H])C(=O)N([H])C([H])(C(=O)N1C([H])([H])C([H])(O[H])C([H])([H])C1([H])C(=O)N([H])C([H])([H])c1c([H])c([H])c(C2=C(C([H])([H])[H])N([H])C([H])([H])S2)c([H])c1[H])C(C([H])([H])[H])(C([H])([H])[H])C([H])([H])[H])C(=O)N([H])C([H])([H])N([H])C(=O)C([H])([H])C1([H])N=C(c2c([H])c([H])c(Cl)c([H])c2[H])c2c(sc(C([H])([H])[H])c2C([H])([H])[H])-n2c(C([H])([H])[H])nnc21

>  <smiles>  (26) 
[H]OC([H])(C(=O)N([H])N([H])C(=O)N([H])C([H])(C(=O)N1C([H])([H])C([H])(O[H])C([H])([H])C1([H])C(=O)N([H])C([H])([H])c1c([H])c([H])c(C2=C(C([H])([H])[H])N([H])C([H])([H])S2)c([H])c1[H])C(C([H])([H])[H])(C([H])([H])[H])C([H])([H])[H])C(=O)N([H])C([H])([H])N([H])C(=O)C([H])([H])C1([H])N=C(c2c([H])c([H])c(Cl)c([H])c2[H])c2c(sc(C([H])([H])[H])c2C([H])([H])[H])-n2c(C([H])([H])[H])nnc21

$$$$
26:0:0
     RDKit          3D

 74 82  0  0  1  0  0  0  0  0999 V2000
   22.4970  -27.9180  -16.3610 C   0  0  0  0  0  2  0  0  0  0  0  0
   24.8560  -27.9220  -16.2190 C   0  0  0  0  0  3  0  0  0  0  0  0
   24.9830  -28.9780  -17.3110 C   0  0  0  0  0  3  0  0  0  0  0  0
   26.2370  -27.1830  -16.2400 C   0  0  0  0  0  3  0  0  0  0  0  0
   22.7820  -29.7630  -17.8720 C   0  0  0  0  0  3  0  0  0  0  0  0
   23.6910  -27.2090  -16.6300 O   0  0  0  0  0  0  0  0  0  0  0  0
   22.0010  -28.6740  -17.4370 O   0  0  0  0  0  0  0  0  0  0  0  0
   23.9760  -29.9880  -17.1640 O   0  0  0  0  0  0  0  0  0  0  0  0
   26.2970  -29.4190  -17.0650 O   0  0  0  0  0  0  0  0  0  0  0  0
   27.1140  -28.1770  -16.7720 O   0  0  0  0  0  0  0  0  0  0  0  0
   22.0900  -30.9770  -18.1380 O   0  0  0  0  0  0  0  0  0  0  0  0
   21.1150  -31.4980  -17.2980 C   0  0  0  0  0  0  0  0  0  0  0  0
   20.4660  -30.9150  -16.4220 O   0  0  0  0  0  0  0  0  0  0  0  0
   21.0450  -33.0300  -17.4330 C   0  0  0  0  0  2  0  0  0  0  0  0
   21.5030  -33.7390  -16.1270 C   0  0  0  0  0  3  0  0  0  0  0  0
   22.8240  -33.2430  -15.7350 N   0  0  0  0  0  0  0  0  0  0  0  0
   21.5300  -35.2590  -16.1880 C   0  0  0  0  0  0  0  0  0  0  0  0
   21.3810  -36.0220  -17.2780 N   0  0  0  0  0  0  0  0  0  0  0  0
   21.5830  -37.3230  -16.8560 N   0  0  0  0  0  0  0  0  0  0  0  0
   21.8520  -37.2450  -15.5480 C   0  0  0  0  0  0  0  0  0  0  0  0
   22.1980  -38.4340  -14.7030 C   0  0  0  0  0  1  0  0  0  0  0  0
   21.8050  -35.9780  -15.0800 N   0  0  0  0  0  0  0  0  0  0  0  0
   21.9850  -35.4740  -13.7760 C   0  0  0  0  0  0  0  0  0  0  0  0
   21.3830  -36.2060  -12.3230 S   0  0  0  0  0  0  0  0  0  0  0  0
   21.9530  -34.8720  -11.3610 C   0  0  0  0  0  0  0  0  0  0  0  0
   21.7290  -34.8820   -9.8830 C   0  0  0  0  0  1  0  0  0  0  0  0
   22.5610  -33.9010  -12.1280 C   0  0  0  0  0  0  0  0  0  0  0  0
   23.0780  -32.6110  -11.5440 C   0  0  0  0  0  1  0  0  0  0  0  0
   22.6150  -34.2750  -13.5190 C   0  0  0  0  0  0  0  0  0  0  0  0
   23.2990  -33.4520  -14.5660 C   0  0  0  0  0  0  0  0  0  0  0  0
   24.6170  -32.8650  -14.2480 C   0  0  0  0  0  0  0  0  0  0  0  0
   25.6310  -33.6610  -13.6710 C   0  0  0  0  0  3  0  0  0  0  0  0
   26.8780  -33.0930  -13.3500 C   0  0  0  0  0  3  0  0  0  0  0  0
   27.1190  -31.7310  -13.6090 C   0  0  0  0  0  0  0  0  0  0  0  0
   28.6420  -31.0220  -13.2300 Cl  0  0  0  0  0  0  0  0  0  0  0  0
   26.1060  -30.9360  -14.1610 C   0  0  0  0  0  3  0  0  0  0  0  0
   24.8550  -31.4970  -14.4770 C   0  0  0  0  0  3  0  0  0  0  0  0
   26.7570  -26.6010  -14.9930 O   0  0  0  0  0  0  0  0  0  0  0  0
   25.7640  -24.6500  -15.4830 N   0  0  0  0  0  0  0  0  0  0  0  0
   26.6340  -25.2570  -14.6260 C   0  0  0  0  0  0  0  0  0  0  0  0
   27.1290  -24.7120  -13.6270 O   0  0  0  0  0  0  0  0  0  0  0  0
   25.4510  -25.2220  -16.2500 H   0  0  0  0  0  0  0  0  0  0  0  0
   24.8750  -23.5390  -15.2360 C   0  0  0  0  0  3  0  0  0  0  0  0
   21.8080  -23.8710  -12.7930 C   0  0  0  0  0  3  0  0  0  0  0  0
   21.3470  -22.6530  -11.9800 C   0  0  0  0  0  2  0  0  0  0  0  0
   22.6070  -21.8360  -11.7820 C   0  0  0  0  0  3  0  0  0  0  0  0
   23.4640  -22.1230  -13.0140 C   0  0  0  0  0  2  0  0  0  0  0  0
   22.9900  -23.4020  -13.5460 N   0  0  0  0  0  0  0  0  0  0  0  0
   23.6320  -24.1230  -14.4920 C   0  0  0  0  0  0  0  0  0  0  0  0
   23.2830  -25.2800  -14.7430 O   0  0  0  0  0  0  0  0  0  0  0  0
   19.8630  -25.3210  -13.0680 N   0  0  0  0  0  0  0  0  0  0  0  0
   20.6360  -24.3930  -13.6430 C   0  0  0  0  0  0  0  0  0  0  0  0
   20.4090  -23.9260  -14.7620 O   0  0  0  0  0  0  0  0  0  0  0  0
   20.1320  -25.6610  -12.1550 H   0  0  0  0  0  0  0  0  0  0  0  0
   18.5960  -25.8050  -13.6010 C   0  0  0  0  0  2  0  0  0  0  0  0
   15.2300  -23.2330  -12.6010 C   0  0  0  0  0  0  0  0  0  0  0  0
   16.2710  -23.4320  -11.6700 C   0  0  0  0  0  3  0  0  0  0  0  0
   17.3600  -24.2600  -11.9910 C   0  0  0  0  0  3  0  0  0  0  0  0
   15.2940  -23.8670  -13.8600 C   0  0  0  0  0  3  0  0  0  0  0  0
   16.3870  -24.6960  -14.1800 C   0  0  0  0  0  3  0  0  0  0  0  0
   17.4250  -24.8980  -13.2480 C   0  0  0  0  0  0  0  0  0  0  0  0
   12.1050  -23.7350  -13.2280 C   0  0  0  0  0  1  0  0  0  0  0  0
   12.7580  -22.5900  -12.4800 C   0  0  0  0  0  0  0  0  0  0  0  0
   11.9390  -21.6300  -11.9220 N   0  0  0  0  0  0  0  0  0  0  0  0
   12.5720  -20.6750  -11.0220 C   0  0  0  0  0  2  0  0  0  0  0  0
   14.3420  -20.9390  -11.3180 S   0  0  0  0  0  0  0  0  0  0  0  0
   14.0610  -22.4250  -12.2120 C   0  0  0  0  0  0  0  0  0  0  0  0
   10.9240  -21.6840  -11.9460 H   0  0  0  0  0  0  0  0  0  0  0  0
   23.3020  -22.2760  -10.6250 O   0  0  0  0  0  0  0  0  0  0  0  0
   23.5160  -23.1970  -10.7340 H   0  0  0  0  0  0  0  0  0  0  0  0
   24.5590  -22.9520  -16.6570 C   0  0  1  0  0  0  0  0  0  0  0  0
   25.8510  -22.3170  -17.2270 C   0  0  0  0  0  1  0  0  0  0  0  0
   24.0640  -24.0160  -17.6720 C   0  0  0  0  0  1  0  0  0  0  0  0
   23.4970  -21.8380  -16.5860 C   0  0  0  0  0  1  0  0  0  0  0  0
  2  6  1  0
  3  8  1  0
  3  9  1  0
  3  2  1  0
  4  2  1  0
  4 38  1  0
  5 11  1  0
  5  7  1  0
  5  8  1  0
  6  1  1  0
  7  1  1  0
  9 10  1  0
 10  4  1  0
 11 12  1  0
 12 13  2  0
 14 12  1  0
 15 14  1  0
 15 16  1  0
 16 30  2  0
 17 15  1  0
 17 22  1  0
 18 19  1  0
 18 17  2  0
 19 20  2  0
 20 22  1  0
 20 21  1  0
 22 23  1  0
 23 29  2  0
 23 24  1  0
 24 25  1  0
 25 26  1  0
 27 28  1  0
 27 25  2  0
 29 27  1  0
 30 31  1  0
 30 29  1  0
 31 32  1  0
 32 33  2  0
 34 33  1  0
 34 35  1  0
 36 34  2  0
 37 31  2  0
 37 36  1  0
 38 40  1  0
 39 43  1  0
 39 40  1  0
 40 41  2  0
 42 39  1  0
 43 49  1  0
 44 52  1  0
 44 45  1  0
 45 46  1  0
 46 69  1  0
 47 46  1  0
 48 47  1  0
 48 44  1  0
 49 48  1  0
 50 49  2  0
 51 54  1  0
 52 51  1  0
 53 52  2  0
 55 61  1  0
 55 51  1  0
 56 67  1  0
 56 57  1  0
 58 57  2  0
 59 56  2  0
 60 59  1  0
 60 61  2  0
 61 58  1  0
 62 63  1  0
 63 67  2  0
 63 64  1  0
 64 65  1  0
 66 65  1  0
 67 66  1  0
 68 64  1  0
 70 69  1  0
 71 74  1  1
 71 43  1  0
 72 71  1  0
 73 71  1  0
M  ISO  4  11 100  12 100  38 101  40 101
M  END
>  <TORSDO>  (27) 
F 15

>  <SCORE>  (27) 
-13.926

>  <name>  (27) 
26

>  <ligand_id>  (27) 
26

>  <original_smiles>  (27) 
[H]OC1([H])C([H])([H])N(C(=O)C([H])(N([H])C(=O)OC2([H])OOC3([H])OC([H])(OC(=O)C([H])([H])C4([H])N=C(c5c([H])c([H])c(Cl)c([H])c5[H])c5c(sc(C([H])([H])[H])c5C([H])([H])[H])-n5c(C([H])([H])[H])nnc54)OC([H])([H])OC23[H])C(C([H])([H])[H])(C([H])([H])[H])C([H])([H])[H])C([H])(C(=O)N([H])C([H])([H])c2c([H])c([H])c(C3=C(C([H])([H])[H])N([H])C([H])([H])S3)c([H])c2[H])C1([H])[H]

>  <smiles>  (27) 
[H]OC1([H])C([H])([H])N(C(=O)C([H])(N([H])C(=O)OC2([H])OOC3([H])OC([H])(OC(=O)C([H])([H])C4([H])N=C(c5c([H])c([H])c(Cl)c([H])c5[H])c5c(sc(C([H])([H])[H])c5C([H])([H])[H])-n5c(C([H])([H])[H])nnc54)OC([H])([H])OC23[H])C(C([H])([H])[H])(C([H])([H])[H])C([H])([H])[H])C([H])(C(=O)N([H])C([H])([H])c2c([H])c([H])c(C3=C(C([H])([H])[H])N([H])C([H])([H])S3)c([H])c2[H])C1([H])[H]

$$$$
27:0:0
     RDKit          3D

 79 88  0  0  1  0  0  0  0  0999 V2000
   24.4810  -28.3710  -14.5870 C   0  0  0  0  0  2  0  0  0  0  0  0
   23.6730  -29.0020  -18.0190 C   0  0  0  0  0  3  0  0  0  0  0  0
   22.3970  -27.9100  -16.2790 C   0  0  0  0  0  3  0  0  0  0  0  0
   23.5720  -27.2730  -14.1760 C   0  0  0  0  0  3  0  0  0  0  0  0
   22.2740  -29.5940  -17.7930 C   0  0  0  0  0  3  0  0  0  0  0  0
   24.9740  -27.7120  -19.5230 C   0  0  0  0  0  3  0  0  0  0  0  0
   23.8060  -27.9300  -16.9080 C   0  0  1  0  0  0  0  0  0  0  0  0
   26.1140  -28.6530  -19.9210 C   0  0  0  0  0  1  0  0  0  0  0  0
   24.8280  -28.2590  -15.9740 O   0  0  0  0  0  0  0  0  0  0  0  0
   23.7580  -28.4270  -19.3230 O   0  0  0  0  0  0  0  0  0  0  0  0
   22.3550  -27.4350  -14.9330 O   0  0  0  0  0  0  0  0  0  0  0  0
   21.9520  -29.2280  -16.4660 O   0  0  0  0  0  0  0  0  0  0  0  0
   25.3550  -26.9760  -18.3720 O   0  0  0  0  0  0  0  0  0  0  0  0
   24.1080  -26.7290  -17.5780 O   0  0  0  0  0  0  0  0  0  0  0  0
   24.1980  -25.9740  -14.1130 O   0  0  0  0  0  0  0  0  0  0  0  0
   25.4910  -25.8810  -14.9450 O   0  0  0  0  0  0  0  0  0  0  0  0
   24.9810  -24.1460  -16.2210 N   0  0  0  0  0  0  0  0  0  0  0  0
   25.8350  -24.6050  -15.2450 C   0  0  0  0  0  0  0  0  0  0  0  0
   26.5420  -23.9160  -14.5090 O   0  0  0  0  0  0  0  0  0  0  0  0
   24.5400  -24.9050  -16.7300 H   0  0  0  0  0  0  0  0  0  0  0  0
   24.0360  -23.0620  -15.9360 C   0  0  0  0  0  3  0  0  0  0  0  0
   21.2390  -23.8910  -13.2830 C   0  0  0  0  0  3  0  0  0  0  0  0
   20.8600  -22.8610  -12.2110 C   0  0  0  0  0  2  0  0  0  0  0  0
   22.1270  -22.0550  -12.0000 C   0  0  0  0  0  3  0  0  0  0  0  0
   22.8530  -22.0880  -13.3440 C   0  0  0  0  0  2  0  0  0  0  0  0
   22.3250  -23.2490  -14.0570 N   0  0  0  0  0  0  0  0  0  0  0  0
   22.8240  -23.7200  -15.2200 C   0  0  0  0  0  0  0  0  0  0  0  0
   22.3590  -24.7250  -15.7340 O   0  0  0  0  0  0  0  0  0  0  0  0
   19.2410  -25.2800  -13.5250 N   0  0  0  0  0  0  0  0  0  0  0  0
   19.9830  -24.3090  -14.0690 C   0  0  0  0  0  0  0  0  0  0  0  0
   19.6690  -23.7290  -15.1100 O   0  0  0  0  0  0  0  0  0  0  0  0
   19.5800  -25.7210  -12.6810 H   0  0  0  0  0  0  0  0  0  0  0  0
   17.9240  -25.6890  -13.9970 C   0  0  0  0  0  2  0  0  0  0  0  0
   14.7410  -23.0300  -12.6690 C   0  0  0  0  0  0  0  0  0  0  0  0
   15.8380  -23.3020  -11.8240 C   0  0  0  0  0  3  0  0  0  0  0  0
   16.8680  -24.1580  -12.2510 C   0  0  0  0  0  3  0  0  0  0  0  0
   14.6900  -23.6200  -13.9500 C   0  0  0  0  0  3  0  0  0  0  0  0
   15.7230  -24.4770  -14.3770 C   0  0  0  0  0  3  0  0  0  0  0  0
   16.8160  -24.7510  -13.5310 C   0  0  0  0  0  0  0  0  0  0  0  0
   11.5600  -23.4130  -13.0490 C   0  0  0  0  0  1  0  0  0  0  0  0
   12.3120  -22.3090  -12.3320 C   0  0  0  0  0  0  0  0  0  0  0  0
   11.5740  -21.3380  -11.6870 N   0  0  0  0  0  0  0  0  0  0  0  0
   12.3120  -20.4260  -10.8210 C   0  0  0  0  0  2  0  0  0  0  0  0
   14.0410  -20.7410  -11.2660 S   0  0  0  0  0  0  0  0  0  0  0  0
   13.6370  -22.1940  -12.1690 C   0  0  0  0  0  0  0  0  0  0  0  0
   10.5600  -21.3580  -11.6290 H   0  0  0  0  0  0  0  0  0  0  0  0
   22.9450  -22.6690  -11.0190 O   0  0  0  0  0  0  0  0  0  0  0  0
   23.1570  -23.5490  -11.3100 H   0  0  0  0  0  0  0  0  0  0  0  0
   23.6110  -22.3700  -17.2790 C   0  0  1  0  0  0  0  0  0  0  0  0
   24.8230  -21.5870  -17.8230 C   0  0  0  0  0  1  0  0  0  0  0  0
   23.1480  -23.3400  -18.3900 C   0  0  0  0  0  1  0  0  0  0  0  0
   22.4690  -21.3570  -17.0430 C   0  0  0  0  0  1  0  0  0  0  0  0
   22.3390  -30.9730  -18.0850 O   0  0  0  0  0  0  0  0  0  0  0  0
   21.2180  -31.7210  -17.8880 C   0  0  0  0  0  0  0  0  0  0  0  0
   20.1600  -31.2700  -17.4620 O   0  0  0  0  0  0  0  0  0  0  0  0
   21.4920  -33.2350  -17.9100 C   0  0  0  0  0  2  0  0  0  0  0  0
   21.8650  -33.7030  -16.4810 C   0  0  0  0  0  3  0  0  0  0  0  0
   23.2040  -33.2100  -16.1660 N   0  0  0  0  0  0  0  0  0  0  0  0
   21.8160  -35.1980  -16.2230 C   0  0  0  0  0  0  0  0  0  0  0  0
   21.6520  -36.1690  -17.1290 N   0  0  0  0  0  0  0  0  0  0  0  0
   21.7840  -37.3560  -16.4290 N   0  0  0  0  0  0  0  0  0  0  0  0
   22.0270  -37.0070  -15.1610 C   0  0  0  0  0  0  0  0  0  0  0  0
   22.3020  -37.9980  -14.0700 C   0  0  0  0  0  1  0  0  0  0  0  0
   22.0290  -35.6710  -14.9770 N   0  0  0  0  0  0  0  0  0  0  0  0
   22.2060  -34.9030  -13.8060 C   0  0  0  0  0  0  0  0  0  0  0  0
   21.5380  -35.2700  -12.2480 S   0  0  0  0  0  0  0  0  0  0  0  0
   22.1520  -33.7810  -11.5840 C   0  0  0  0  0  0  0  0  0  0  0  0
   21.8990  -33.4570  -10.1470 C   0  0  0  0  0  1  0  0  0  0  0  0
   22.8200  -33.0290  -12.5260 C   0  0  0  0  0  0  0  0  0  0  0  0
   23.3840  -31.6640  -12.2240 C   0  0  0  0  0  1  0  0  0  0  0  0
   22.8920  -33.7070  -13.7930 C   0  0  0  0  0  0  0  0  0  0  0  0
   23.6480  -33.1820  -14.9680 C   0  0  0  0  0  0  0  0  0  0  0  0
   25.0060  -32.6360  -14.7610 C   0  0  0  0  0  0  0  0  0  0  0  0
   25.8590  -33.1640  -13.7690 C   0  0  0  0  0  3  0  0  0  0  0  0
   27.1290  -32.5920  -13.5420 C   0  0  0  0  0  3  0  0  0  0  0  0
   27.5680  -31.5190  -14.3310 C   0  0  0  0  0  0  0  0  0  0  0  0
   29.0840  -30.7500  -14.0500 Cl  0  0  0  0  0  0  0  0  0  0  0  0
   26.7740  -31.0840  -15.3890 C   0  0  0  0  0  3  0  0  0  0  0  0
   25.4800  -31.6060  -15.5820 C   0  0  0  0  0  3  0  0  0  0  0  0
  1  4  1  0
  2 10  1  0
  2  5  1  0
  2  7  1  0
  3 12  1  0
  3 11  1  0
  4 15  1  0
  5 53  1  0
  5 12  1  0
  6  8  1  0
  6 10  1  0
  6 13  1  0
  7 14  1  6
  7  3  1  0
  7  9  1  0
  9  1  1  0
 11  4  1  0
 13 14  1  0
 16 15  1  0
 17 21  1  0
 17 18  1  0
 18 16  1  0
 18 19  2  0
 20 17  1  0
 21 27  1  0
 22 30  1  0
 22 23  1  0
 23 24  1  0
 24 47  1  0
 25 24  1  0
 26 25  1  0
 26 22  1  0
 27 26  1  0
 28 27  2  0
 29 32  1  0
 30 29  1  0
 31 30  2  0
 33 39  1  0
 33 29  1  0
 34 45  1  0
 34 35  1  0
 36 35  2  0
 37 34  2  0
 38 37  1  0
 38 39  2  0
 39 36  1  0
 40 41  1  0
 41 45  2  0
 41 42  1  0
 42 46  1  0
 42 43  1  0
 44 43  1  0
 45 44  1  0
 48 47  1  0
 49 52  1  1
 49 21  1  0
 50 49  1  0
 51 49  1  0
 53 54  1  0
 54 55  2  0
 56 54  1  0
 57 56  1  0
 57 59  1  0
 57 58  1  0
 58 72  2  0
 59 64  1  0
 60 61  1  0
 60 59  2  0
 61 62  2  0
 62 64  1  0
 62 63  1  0
 64 65  1  0
 65 71  2  0
 65 66  1  0
 66 67  1  0
 67 68  1  0
 69 70  1  0
 69 67  2  0
 71 69  1  0
 72 73  1  0
 72 71  1  0
 73 74  1  0
 74 75  2  0
 76 77  1  0
 76 75  1  0
 78 76  2  0
 79 78  1  0
 79 73  2  0
M  ISO  4  16 101  18 101  53 100  54 100
M  END
>  <TORSDO>  (28) 
F 16

>  <SCORE>  (28) 
-8.666

>  <name>  (28) 
27

>  <ligand_id>  (28) 
27

>  <original_smiles>  (28) 
[H]OC1([H])C([H])([H])N(C(=O)C([H])(N([H])C(=O)OOC2([H])OC3([H])OC([H])(OC(=O)C([H])([H])C4([H])N=C(c5c([H])c([H])c(Cl)c([H])c5[H])c5c(sc(C([H])([H])[H])c5C([H])([H])[H])-n5c(C([H])([H])[H])nnc54)C4([H])OC([H])(C([H])([H])[H])OOC34OC2([H])[H])C(C([H])([H])[H])(C([H])([H])[H])C([H])([H])[H])C([H])(C(=O)N([H])C([H])([H])c2c([H])c([H])c(C3=C(C([H])([H])[H])N([H])C([H])([H])S3)c([H])c2[H])C1([H])[H]

>  <smiles>  (28) 
[H]OC1([H])C([H])([H])N(C(=O)C([H])(N([H])C(=O)OOC2([H])OC3([H])OC([H])(OC(=O)C([H])([H])C4([H])N=C(c5c([H])c([H])c(Cl)c([H])c5[H])c5c(sc(C([H])([H])[H])c5C([H])([H])[H])-n5c(C([H])([H])[H])nnc54)C4([H])OC([H])(C([H])([H])[H])OOC34OC2([H])[H])C(C([H])([H])[H])(C([H])([H])[H])C([H])([H])[H])C([H])(C(=O)N([H])C([H])([H])c2c([H])c([H])c(C3=C(C([H])([H])[H])N([H])C([H])([H])S3)c([H])c2[H])C1([H])[H]

$$$$
28:0:0
     RDKit          3D

 77 85  0  0  1  0  0  0  0  0999 V2000
   24.1110  -29.0060  -17.3970 C   0  0  0  0  0  3  0  0  0  0  0  0
   25.1850  -28.4540  -16.3530 C   0  0  0  0  0  3  0  0  0  0  0  0
   24.2500  -28.2360  -18.7260 C   0  0  0  0  0  3  0  0  0  0  0  0
   25.7440  -28.2950  -19.1450 C   0  0  0  0  0  3  0  0  0  0  0  0
   26.6390  -27.9460  -17.9220 C   0  0  0  0  0  3  0  0  0  0  0  0
   25.5220  -26.9470  -16.2620 C   0  0  0  0  0  3  0  0  0  0  0  0
   26.4060  -28.8970  -16.9230 O   0  0  0  0  0  0  0  0  0  0  0  0
   26.2250  -26.7090  -17.4350 O   0  0  0  0  0  0  0  0  0  0  0  0
   25.9930  -27.4330  -20.2380 O   0  0  0  0  0  0  0  0  0  0  0  0
   25.8430  -26.5470  -19.9240 H   0  0  0  0  0  0  0  0  0  0  0  0
   23.4560  -28.7950  -19.7660 O   0  0  0  0  0  0  0  0  0  0  0  0
   23.8940  -29.5780  -20.0850 H   0  0  0  0  0  0  0  0  0  0  0  0
   26.3690  -26.6530  -15.1060 O   0  0  0  0  0  0  0  0  0  0  0  0
   25.9680  -24.4910  -15.6050 N   0  0  0  0  0  0  0  0  0  0  0  0
   26.6260  -25.2930  -14.7340 C   0  0  0  0  0  0  0  0  0  0  0  0
   27.2080  -24.8620  -13.7250 O   0  0  0  0  0  0  0  0  0  0  0  0
   25.8120  -24.9350  -16.4970 H   0  0  0  0  0  0  0  0  0  0  0  0
   24.9710  -23.4920  -15.2950 C   0  0  0  0  0  3  0  0  0  0  0  0
   21.9320  -23.9420  -12.8220 C   0  0  0  0  0  3  0  0  0  0  0  0
   21.4800  -22.7540  -11.9590 C   0  0  0  0  0  2  0  0  0  0  0  0
   22.7430  -21.9500  -11.7370 C   0  0  0  0  0  3  0  0  0  0  0  0
   23.5920  -22.1940  -12.9840 C   0  0  0  0  0  2  0  0  0  0  0  0
   23.1120  -23.4520  -13.5640 N   0  0  0  0  0  0  0  0  0  0  0  0
   23.7460  -24.1300  -14.5500 C   0  0  0  0  0  0  0  0  0  0  0  0
   23.3900  -25.2730  -14.8600 O   0  0  0  0  0  0  0  0  0  0  0  0
   19.9660  -25.3560  -13.1320 N   0  0  0  0  0  0  0  0  0  0  0  0
   20.7500  -24.4230  -13.6830 C   0  0  0  0  0  0  0  0  0  0  0  0
   20.5240  -23.9200  -14.7860 O   0  0  0  0  0  0  0  0  0  0  0  0
   20.2330  -25.7280  -12.2310 H   0  0  0  0  0  0  0  0  0  0  0  0
   18.6920  -25.8090  -13.6760 C   0  0  0  0  0  2  0  0  0  0  0  0
   15.3630  -23.2060  -12.6280 C   0  0  0  0  0  0  0  0  0  0  0  0
   16.4070  -23.4290  -11.7060 C   0  0  0  0  0  3  0  0  0  0  0  0
   17.4840  -24.2660  -12.0420 C   0  0  0  0  0  3  0  0  0  0  0  0
   15.4120  -23.8280  -13.8940 C   0  0  0  0  0  3  0  0  0  0  0  0
   16.4930  -24.6660  -14.2300 C   0  0  0  0  0  3  0  0  0  0  0  0
   17.5340  -24.8920  -13.3070 C   0  0  0  0  0  0  0  0  0  0  0  0
   12.2270  -23.6700  -13.2310 C   0  0  0  0  0  1  0  0  0  0  0  0
   12.9000  -22.5360  -12.4810 C   0  0  0  0  0  0  0  0  0  0  0  0
   12.0970  -21.5720  -11.9100 N   0  0  0  0  0  0  0  0  0  0  0  0
   12.7490  -20.6290  -11.0080 C   0  0  0  0  0  2  0  0  0  0  0  0
   14.5120  -20.9110  -11.3230 S   0  0  0  0  0  0  0  0  0  0  0  0
   14.2070  -22.3880  -12.2250 C   0  0  0  0  0  0  0  0  0  0  0  0
   11.0810  -21.6140  -11.9250 H   0  0  0  0  0  0  0  0  0  0  0  0
   23.4410  -22.4340  -10.6010 O   0  0  0  0  0  0  0  0  0  0  0  0
   23.6480  -23.3540  -10.7410 H   0  0  0  0  0  0  0  0  0  0  0  0
   24.6490  -22.8500  -16.6840 C   0  0  1  0  0  0  0  0  0  0  0  0
   25.9320  -22.1810  -17.2410 C   0  0  0  0  0  1  0  0  0  0  0  0
   24.1560  -23.8800  -17.7340 C   0  0  0  0  0  1  0  0  0  0  0  0
   23.5790  -21.7540  -16.5500 C   0  0  0  0  0  1  0  0  0  0  0  0
   22.6550  -29.4220  -16.9370 C   0  0  0  0  0  2  0  0  0  0  0  0
   22.2460  -30.7180  -17.4750 O   0  0  0  0  0  0  0  0  0  0  0  0
   21.1270  -31.4120  -17.0180 C   0  0  0  0  0  0  0  0  0  0  0  0
   20.3030  -30.9390  -16.2380 O   0  0  0  0  0  0  0  0  0  0  0  0
   21.1590  -32.9380  -17.2920 C   0  0  0  0  0  2  0  0  0  0  0  0
   21.5710  -33.7010  -15.9980 C   0  0  0  0  0  3  0  0  0  0  0  0
   22.9050  -33.2430  -15.6180 N   0  0  0  0  0  0  0  0  0  0  0  0
   21.5620  -35.2250  -16.0500 C   0  0  0  0  0  0  0  0  0  0  0  0
   21.3750  -35.9960  -17.1280 N   0  0  0  0  0  0  0  0  0  0  0  0
   21.5660  -37.2970  -16.6980 N   0  0  0  0  0  0  0  0  0  0  0  0
   21.8590  -37.2140  -15.3970 C   0  0  0  0  0  0  0  0  0  0  0  0
   22.2080  -38.4010  -14.5490 C   0  0  0  0  0  1  0  0  0  0  0  0
   21.8380  -35.9430  -14.9380 N   0  0  0  0  0  0  0  0  0  0  0  0
   22.0470  -35.4380  -13.6370 C   0  0  0  0  0  0  0  0  0  0  0  0
   21.4630  -36.1550  -12.1690 S   0  0  0  0  0  0  0  0  0  0  0  0
   22.0690  -34.8220  -11.2230 C   0  0  0  0  0  0  0  0  0  0  0  0
   21.8740  -34.8200   -9.7410 C   0  0  0  0  0  1  0  0  0  0  0  0
   22.6750  -33.8650  -12.0070 C   0  0  0  0  0  0  0  0  0  0  0  0
   23.2200  -32.5780  -11.4410 C   0  0  0  0  0  1  0  0  0  0  0  0
   22.7020  -34.2500  -13.3940 C   0  0  0  0  0  0  0  0  0  0  0  0
   23.3880  -33.4530  -14.4550 C   0  0  0  0  0  0  0  0  0  0  0  0
   24.7220  -32.8900  -14.1670 C   0  0  0  0  0  0  0  0  0  0  0  0
   25.7210  -33.6920  -13.5780 C   0  0  0  0  0  3  0  0  0  0  0  0
   26.9850  -33.1470  -13.2830 C   0  0  0  0  0  3  0  0  0  0  0  0
   27.2490  -31.7970  -13.5640 C   0  0  0  0  0  0  0  0  0  0  0  0
   28.7840  -31.0930  -13.2180 Cl  0  0  0  0  0  0  0  0  0  0  0  0
   26.2510  -30.9970  -14.1180 C   0  0  0  0  0  3  0  0  0  0  0  0
   24.9900  -31.5380  -14.4460 C   0  0  0  0  0  3  0  0  0  0  0  0
  1 50  1  0
  1  2  1  0
  2  7  1  0
  2  6  1  0
  3 11  1  0
  3  1  1  0
  4  9  1  0
  4  3  1  0
  4  5  1  0
  5  8  1  0
  5  7  1  0
  6 13  1  0
  8  6  1  0
  9 10  1  0
 12 11  1  0
 13 15  1  0
 14 18  1  0
 14 15  1  0
 15 16  2  0
 17 14  1  0
 18 24  1  0
 19 27  1  0
 19 20  1  0
 20 21  1  0
 21 44  1  0
 22 21  1  0
 23 22  1  0
 23 19  1  0
 24 23  1  0
 25 24  2  0
 26 29  1  0
 27 26  1  0
 28 27  2  0
 30 36  1  0
 30 26  1  0
 31 42  1  0
 31 32  1  0
 33 32  2  0
 34 31  2  0
 35 34  1  0
 35 36  2  0
 36 33  1  0
 37 38  1  0
 38 42  2  0
 38 39  1  0
 39 40  1  0
 41 40  1  0
 42 41  1  0
 43 39  1  0
 45 44  1  0
 46 49  1  1
 46 18  1  0
 47 46  1  0
 48 46  1  0
 51 52  1  0
 51 50  1  0
 52 53  2  0
 54 52  1  0
 55 54  1  0
 55 56  1  0
 56 70  2  0
 57 55  1  0
 57 62  1  0
 58 59  1  0
 58 57  2  0
 59 60  2  0
 60 62  1  0
 60 61  1  0
 62 63  1  0
 63 69  2  0
 63 64  1  0
 64 65  1  0
 65 66  1  0
 67 68  1  0
 67 65  2  0
 69 67  1  0
 70 71  1  0
 70 69  1  0
 71 72  1  0
 72 73  2  0
 74 73  1  0
 74 75  1  0
 76 74  2  0
 77 71  2  0
 77 76  1  0
M  ISO  4  13 101  15 101  51 100  52 100
M  END
>  <TORSDO>  (29) 
F 18

>  <SCORE>  (29) 
-13.467

>  <name>  (29) 
28

>  <ligand_id>  (29) 
28

>  <original_smiles>  (29) 
[H]OC1([H])C([H])([H])N(C(=O)C([H])(N([H])C(=O)OC2([H])OC3([H])OC2([H])C([H])(C([H])([H])OC(=O)C([H])([H])C2([H])N=C(c4c([H])c([H])c(Cl)c([H])c4[H])c4c(sc(C([H])([H])[H])c4C([H])([H])[H])-n4c(C([H])([H])[H])nnc42)C([H])(O[H])C3([H])O[H])C(C([H])([H])[H])(C([H])([H])[H])C([H])([H])[H])C([H])(C(=O)N([H])C([H])([H])c2c([H])c([H])c(C3=C(C([H])([H])[H])N([H])C([H])([H])S3)c([H])c2[H])C1([H])[H]

>  <smiles>  (29) 
[H]OC1([H])C([H])([H])N(C(=O)C([H])(N([H])C(=O)OC2([H])OC3([H])OC2([H])C([H])(C([H])([H])OC(=O)C([H])([H])C2([H])N=C(c4c([H])c([H])c(Cl)c([H])c4[H])c4c(sc(C([H])([H])[H])c4C([H])([H])[H])-n4c(C([H])([H])[H])nnc42)C([H])(O[H])C3([H])O[H])C(C([H])([H])[H])(C([H])([H])[H])C([H])([H])[H])C([H])(C(=O)N([H])C([H])([H])c2c([H])c([H])c(C3=C(C([H])([H])[H])N([H])C([H])([H])S3)c([H])c2[H])C1([H])[H]

$$$$
29:0:0
     RDKit          3D

 75 82  0  0  1  0  0  0  0  0999 V2000
   25.4090  -29.5540  -17.5120 C   0  0  0  0  0  2  0  0  0  0  0  0
   26.0750  -28.6470  -16.7210 C   0  0  0  0  0  2  0  0  0  0  0  0
   24.1720  -29.5000  -18.4560 C   0  0  0  0  0  2  0  0  0  0  0  0
   23.3340  -27.0250  -16.1230 C   0  0  0  0  0  2  0  0  0  0  0  0
   25.6740  -27.2870  -16.1100 C   0  0  0  0  0  3  0  0  0  0  0  0
   22.6560  -29.7620  -18.0320 C   0  0  0  0  0  3  0  0  0  0  0  0
   22.1440  -28.6980  -17.0710 C   0  0  0  0  0  3  0  0  0  0  0  0
   24.4530  -27.5680  -15.4860 O   0  0  0  0  0  0  0  0  0  0  0  0
   22.9510  -27.6060  -17.2860 O   0  0  0  0  0  0  0  0  0  0  0  0
   20.1200  -27.5510  -16.5480 C   0  0  0  0  0  1  0  0  0  0  0  0
   20.8330  -28.3880  -17.4470 O   0  0  0  0  0  0  0  0  0  0  0  0
   26.6640  -26.7480  -15.1530 O   0  0  0  0  0  0  0  0  0  0  0  0
   25.8220  -24.6330  -15.4940 N   0  0  0  0  0  0  0  0  0  0  0  0
   26.6520  -25.3590  -14.6930 C   0  0  0  0  0  0  0  0  0  0  0  0
   27.2370  -24.8660  -13.7060 O   0  0  0  0  0  0  0  0  0  0  0  0
   25.5060  -25.1270  -16.3080 H   0  0  0  0  0  0  0  0  0  0  0  0
   25.0000  -23.4830  -15.1620 C   0  0  0  0  0  3  0  0  0  0  0  0
   21.8790  -23.7510  -12.7540 C   0  0  0  0  0  3  0  0  0  0  0  0
   21.3760  -22.5310  -11.9780 C   0  0  0  0  0  2  0  0  0  0  0  0
   22.6230  -21.6930  -11.7650 C   0  0  0  0  0  3  0  0  0  0  0  0
   23.5040  -21.9590  -12.9850 C   0  0  0  0  0  2  0  0  0  0  0  0
   23.0620  -23.2500  -13.4930 N   0  0  0  0  0  0  0  0  0  0  0  0
   23.7590  -23.9990  -14.3600 C   0  0  0  0  0  0  0  0  0  0  0  0
   23.4500  -25.1700  -14.4320 O   0  0  0  0  0  0  0  0  0  0  0  0
   19.9690  -25.2620  -13.0430 N   0  0  0  0  0  0  0  0  0  0  0  0
   20.7330  -24.3250  -13.6180 C   0  0  0  0  0  0  0  0  0  0  0  0
   20.5240  -23.8980  -14.7550 O   0  0  0  0  0  0  0  0  0  0  0  0
   20.2220  -25.5760  -12.1160 H   0  0  0  0  0  0  0  0  0  0  0  0
   18.7220  -25.7840  -13.5930 C   0  0  0  0  0  2  0  0  0  0  0  0
   15.2810  -23.2860  -12.6520 C   0  0  0  0  0  0  0  0  0  0  0  0
   16.3190  -23.4470  -11.7120 C   0  0  0  0  0  3  0  0  0  0  0  0
   17.4300  -24.2530  -12.0130 C   0  0  0  0  0  3  0  0  0  0  0  0
   15.3690  -23.9380  -13.9010 C   0  0  0  0  0  3  0  0  0  0  0  0
   16.4840  -24.7430  -14.2030 C   0  0  0  0  0  3  0  0  0  0  0  0
   17.5210  -24.9050  -13.2610 C   0  0  0  0  0  0  0  0  0  0  0  0
   12.1710  -23.8730  -13.2820 C   0  0  0  0  0  1  0  0  0  0  0  0
   12.7940  -22.6990  -12.5530 C   0  0  0  0  0  0  0  0  0  0  0  0
   11.9500  -21.7510  -12.0140 N   0  0  0  0  0  0  0  0  0  0  0  0
   12.5570  -20.7650  -11.1270 C   0  0  0  0  0  2  0  0  0  0  0  0
   14.3330  -20.9920  -11.4110 S   0  0  0  0  0  0  0  0  0  0  0  0
   14.0910  -22.4990  -12.2820 C   0  0  0  0  0  0  0  0  0  0  0  0
   10.9380  -21.8290  -12.0400 H   0  0  0  0  0  0  0  0  0  0  0  0
   23.3110  -22.1270  -10.6020 O   0  0  0  0  0  0  0  0  0  0  0  0
   23.5440  -23.0440  -10.7150 H   0  0  0  0  0  0  0  0  0  0  0  0
   24.6930  -22.8120  -16.5550 C   0  0  1  0  0  0  0  0  0  0  0  0
   26.0070  -22.1930  -17.0890 C   0  0  0  0  0  1  0  0  0  0  0  0
   24.1700  -23.7650  -17.6580 C   0  0  0  0  0  1  0  0  0  0  0  0
   23.6590  -21.6820  -16.4320 C   0  0  0  0  0  1  0  0  0  0  0  0
   22.2940  -31.1000  -17.6410 O   0  0  0  0  0  0  0  0  0  0  0  0
   21.1090  -31.5100  -17.0040 C   0  0  0  0  0  0  0  0  0  0  0  0
   20.3860  -30.8770  -16.2240 O   0  0  0  0  0  0  0  0  0  0  0  0
   20.9740  -33.0210  -17.1190 C   0  0  0  0  0  2  0  0  0  0  0  0
   21.4930  -33.7050  -15.8350 C   0  0  0  0  0  3  0  0  0  0  0  0
   22.8320  -33.2090  -15.5080 N   0  0  0  0  0  0  0  0  0  0  0  0
   21.5180  -35.2140  -15.9150 C   0  0  0  0  0  0  0  0  0  0  0  0
   21.3140  -35.9610  -17.0060 N   0  0  0  0  0  0  0  0  0  0  0  0
   21.5420  -37.2640  -16.6100 N   0  0  0  0  0  0  0  0  0  0  0  0
   21.8760  -37.1990  -15.3170 C   0  0  0  0  0  0  0  0  0  0  0  0
   22.2660  -38.3950  -14.5060 C   0  0  0  0  0  1  0  0  0  0  0  0
   21.8500  -35.9390  -14.8310 N   0  0  0  0  0  0  0  0  0  0  0  0
   22.0930  -35.4450  -13.5340 C   0  0  0  0  0  0  0  0  0  0  0  0
   21.5610  -36.1910  -12.0620 S   0  0  0  0  0  0  0  0  0  0  0  0
   22.1760  -34.8640  -11.1150 C   0  0  0  0  0  0  0  0  0  0  0  0
   22.0250  -34.8920   -9.6290 C   0  0  0  0  0  1  0  0  0  0  0  0
   22.7440  -33.8840  -11.9010 C   0  0  0  0  0  0  0  0  0  0  0  0
   23.2870  -32.5990  -11.3290 C   0  0  0  0  0  1  0  0  0  0  0  0
   22.7320  -34.2460  -13.2950 C   0  0  0  0  0  0  0  0  0  0  0  0
   23.3620  -33.4140  -14.3660 C   0  0  0  0  0  0  0  0  0  0  0  0
   24.6860  -32.8130  -14.1170 C   0  0  0  0  0  0  0  0  0  0  0  0
   25.7290  -33.6080  -13.5950 C   0  0  0  0  0  3  0  0  0  0  0  0
   26.9890  -33.0380  -13.3310 C   0  0  0  0  0  3  0  0  0  0  0  0
   27.2000  -31.6670  -13.5640 C   0  0  0  0  0  0  0  0  0  0  0  0
   28.7380  -30.9560  -13.2510 Cl  0  0  0  0  0  0  0  0  0  0  0  0
   26.1470  -30.8700  -14.0360 C   0  0  0  0  0  3  0  0  0  0  0  0
   24.9020  -31.4400  -14.3550 C   0  0  0  0  0  3  0  0  0  0  0  0
  1  2  1  0
  2  5  1  0
  3  6  1  0
  3  1  1  0
  4  8  1  0
  5  8  1  0
  5 12  1  0
  6 49  1  0
  6  7  1  0
  7 11  1  0
  9  7  1  0
  9  4  1  0
 11 10  1  0
 12 14  1  0
 13 17  1  0
 13 14  1  0
 14 15  2  0
 16 13  1  0
 17 23  1  0
 18 26  1  0
 18 19  1  0
 19 20  1  0
 20 43  1  0
 21 20  1  0
 22 21  1  0
 22 18  1  0
 23 22  1  0
 24 23  2  0
 25 28  1  0
 26 25  1  0
 27 26  2  0
 29 35  1  0
 29 25  1  0
 30 41  1  0
 30 31  1  0
 32 31  2  0
 33 30  2  0
 34 33  1  0
 34 35  2  0
 35 32  1  0
 36 37  1  0
 37 41  2  0
 37 38  1  0
 38 39  1  0
 40 39  1  0
 41 40  1  0
 42 38  1  0
 44 43  1  0
 45 48  1  1
 45 17  1  0
 46 45  1  0
 47 45  1  0
 49 50  1  0
 50 51  2  0
 52 50  1  0
 53 52  1  0
 53 54  1  0
 54 68  2  0
 55 53  1  0
 55 60  1  0
 56 57  1  0
 56 55  2  0
 57 58  2  0
 58 60  1  0
 58 59  1  0
 60 61  1  0
 61 67  2  0
 61 62  1  0
 62 63  1  0
 63 64  1  0
 65 66  1  0
 65 63  2  0
 67 65  1  0
 68 69  1  0
 68 67  1  0
 69 70  1  0
 70 71  2  0
 72 71  1  0
 72 73  1  0
 74 72  2  0
 75 69  2  0
 75 74  1  0
M  ISO  4  12 101  14 101  49 100  50 100
M  END
>  <TORSDO>  (30) 
F 16

>  <SCORE>  (30) 
-11.298

>  <name>  (30) 
29

>  <ligand_id>  (30) 
29

>  <original_smiles>  (30) 
[H]OC1([H])C([H])([H])N(C(=O)C([H])(N([H])C(=O)OC2([H])OC([H])([H])OC([H])(OC([H])([H])[H])C([H])(OC(=O)C([H])([H])C3([H])N=C(c4c([H])c([H])c(Cl)c([H])c4[H])c4c(sc(C([H])([H])[H])c4C([H])([H])[H])-n4c(C([H])([H])[H])nnc43)C([H])([H])C([H])=C2[H])C(C([H])([H])[H])(C([H])([H])[H])C([H])([H])[H])C([H])(C(=O)N([H])C([H])([H])c2c([H])c([H])c(C3=C(C([H])([H])[H])N([H])C([H])([H])S3)c([H])c2[H])C1([H])[H]

>  <smiles>  (30) 
[H]OC1([H])C([H])([H])N(C(=O)C([H])(N([H])C(=O)OC2([H])OC([H])([H])OC([H])(OC([H])([H])[H])C([H])(OC(=O)C([H])([H])C3([H])N=C(c4c([H])c([H])c(Cl)c([H])c4[H])c4c(sc(C([H])([H])[H])c4C([H])([H])[H])-n4c(C([H])([H])[H])nnc43)C([H])([H])C([H])=C2[H])C(C([H])([H])[H])(C([H])([H])[H])C([H])([H])[H])C([H])(C(=O)N([H])C([H])([H])c2c([H])c([H])c(C3=C(C([H])([H])[H])N([H])C([H])([H])S3)c([H])c2[H])C1([H])[H]

$$$$
30:0:0
     RDKit          3D

 84 90  0  0  1  0  0  0  0  0999 V2000
   27.2460  -27.5900  -16.7700 N   0  0  0  0  0  4  0  0  0  0  0  0
   27.4840  -26.8260  -17.3820 H   0  0  0  0  0  0  0  0  0  0  0  0
   27.8580  -28.3690  -16.9650 H   0  0  0  0  0  0  0  0  0  0  0  0
   25.6750  -27.9610  -18.3170 C   0  0  0  0  0  2  0  0  0  0  0  0
   25.9160  -27.9980  -17.0460 N   0  0  0  0  0  2  0  0  0  0  0  0
   24.4900  -28.3440  -18.9290 N   0  0  0  0  0  0  0  0  0  0  0  0
   24.3080  -28.1460  -19.9070 H   0  0  0  0  0  0  0  0  0  0  0  0
   22.2260  -29.0660  -19.0410 C   0  0  0  0  0  0  0  0  0  0  0  0
   22.4410  -29.3700  -20.3280 N   0  0  0  0  0  4  0  0  0  0  0  0
   23.2640  -28.6330  -18.2840 N   0  0  0  0  0  0  0  0  0  0  0  0
   20.9720  -29.2040  -18.5620 N   0  0  0  0  0  0  0  0  0  0  0  0
   23.3640  -29.6120  -20.6490 H   0  0  0  0  0  0  0  0  0  0  0  0
   21.6770  -29.6230  -20.9360 H   0  0  0  0  0  0  0  0  0  0  0  0
   23.1260  -28.4300  -17.3030 H   0  0  0  0  0  0  0  0  0  0  0  0
   20.2040  -29.4450  -19.1730 H   0  0  0  0  0  0  0  0  0  0  0  0
   20.3800  -30.0410  -16.4160 C   0  0  0  0  0  0  0  0  0  0  0  0
   20.1040  -29.8300  -15.2350 O   0  0  0  0  0  0  0  0  0  0  0  0
   20.6500  -28.9950  -17.2210 N   0  0  0  0  0  0  0  0  0  0  0  0
   20.5470  -28.0100  -17.0230 H   0  0  0  0  0  0  0  0  0  0  0  0
   20.4830  -31.5010  -16.9150 C   0  0  0  0  0  2  0  0  0  0  0  0
   21.0480  -32.4640  -15.8380 C   0  0  0  0  0  3  0  0  0  0  0  0
   22.4460  -32.1170  -15.5820 N   0  0  0  0  0  0  0  0  0  0  0  0
   20.9480  -33.9360  -16.2050 C   0  0  0  0  0  0  0  0  0  0  0  0
   20.5660  -34.4420  -17.3840 N   0  0  0  0  0  0  0  0  0  0  0  0
   20.7170  -35.8110  -17.2710 N   0  0  0  0  0  0  0  0  0  0  0  0
   21.1890  -36.0240  -16.0390 C   0  0  0  0  0  0  0  0  0  0  0  0
   21.5560  -37.3820  -15.5200 C   0  0  0  0  0  1  0  0  0  0  0  0
   21.3250  -34.8850  -15.3260 N   0  0  0  0  0  0  0  0  0  0  0  0
   21.7420  -34.6760  -13.9970 C   0  0  0  0  0  0  0  0  0  0  0  0
   21.3090  -35.6660  -12.6400 S   0  0  0  0  0  0  0  0  0  0  0  0
   22.1330  -34.5980  -11.5400 C   0  0  0  0  0  0  0  0  0  0  0  0
   22.1390  -34.9090  -10.0780 C   0  0  0  0  0  1  0  0  0  0  0  0
   22.6950  -33.5190  -12.1900 C   0  0  0  0  0  0  0  0  0  0  0  0
   23.4050  -32.4120  -11.4520 C   0  0  0  0  0  1  0  0  0  0  0  0
   22.5010  -33.5910  -13.6150 C   0  0  0  0  0  0  0  0  0  0  0  0
   23.0780  -32.5980  -14.5780 C   0  0  0  0  0  0  0  0  0  0  0  0
   24.4750  -32.1610  -14.3850 C   0  0  0  0  0  0  0  0  0  0  0  0
   25.4710  -33.1010  -14.0400 C   0  0  0  0  0  3  0  0  0  0  0  0
   26.7960  -32.6800  -13.8260 C   0  0  0  0  0  3  0  0  0  0  0  0
   27.1280  -31.3200  -13.9540 C   0  0  0  0  0  0  0  0  0  0  0  0
   28.7510  -30.8010  -13.6850 Cl  0  0  0  0  0  0  0  0  0  0  0  0
   26.1340  -30.3850  -14.2950 C   0  0  0  0  0  3  0  0  0  0  0  0
   24.8110  -30.7990  -14.5230 C   0  0  0  0  0  3  0  0  0  0  0  0
   27.5020  -27.1700  -15.3710 N   0  0  0  0  0  4  0  0  0  0  0  0
   26.6180  -27.2010  -14.8870 H   0  0  0  0  0  0  0  0  0  0  0  0
   28.1100  -27.8670  -14.9750 H   0  0  0  0  0  0  0  0  0  0  0  0
   26.1620  -24.7520  -15.3710 N   0  0  0  0  0  0  0  0  0  0  0  0
   27.1930  -25.0470  -14.5650 C   0  0  0  0  0  0  0  0  0  0  0  0
   27.3610  -24.5310  -13.4610 O   0  0  0  0  0  0  0  0  0  0  0  0
   28.1220  -25.8210  -15.1390 N   0  0  0  0  0  0  0  0  0  0  0  0
   26.1470  -25.0820  -16.3220 H   0  0  0  0  0  0  0  0  0  0  0  0
   29.0090  -25.8790  -14.6590 H   0  0  0  0  0  0  0  0  0  0  0  0
   25.1810  -23.6810  -15.1640 C   0  0  0  0  0  3  0  0  0  0  0  0
   21.9930  -24.0950  -12.8970 C   0  0  0  0  0  3  0  0  0  0  0  0
   21.5140  -22.9180  -12.0310 C   0  0  0  0  0  2  0  0  0  0  0  0
   22.7760  -22.1390  -11.7260 C   0  0  0  0  0  3  0  0  0  0  0  0
   23.6850  -22.3730  -12.9340 C   0  0  0  0  0  2  0  0  0  0  0  0
   23.2170  -23.6120  -13.5690 N   0  0  0  0  0  0  0  0  0  0  0  0
   23.8930  -24.2900  -14.5330 C   0  0  0  0  0  0  0  0  0  0  0  0
   23.5450  -25.4160  -14.9060 O   0  0  0  0  0  0  0  0  0  0  0  0
   20.0480  -25.4920  -13.3560 N   0  0  0  0  0  0  0  0  0  0  0  0
   20.8500  -24.5320  -13.8290 C   0  0  0  0  0  0  0  0  0  0  0  0
   20.6690  -23.9750  -14.9140 O   0  0  0  0  0  0  0  0  0  0  0  0
   20.2810  -25.9060  -12.4640 H   0  0  0  0  0  0  0  0  0  0  0  0
   18.7990  -25.9210  -13.9720 C   0  0  0  0  0  2  0  0  0  0  0  0
   15.3950  -23.4640  -12.8230 C   0  0  0  0  0  0  0  0  0  0  0  0
   16.3900  -23.7820  -11.8750 C   0  0  0  0  0  3  0  0  0  0  0  0
   17.4930  -24.5730  -12.2430 C   0  0  0  0  0  3  0  0  0  0  0  0
   15.5170  -23.9400  -14.1450 C   0  0  0  0  0  3  0  0  0  0  0  0
   16.6230  -24.7300  -14.5120 C   0  0  0  0  0  3  0  0  0  0  0  0
   17.6150  -25.0530  -13.5660 C   0  0  0  0  0  0  0  0  0  0  0  0
   12.3110  -23.8160  -13.7070 C   0  0  0  0  0  1  0  0  0  0  0  0
   12.9260  -22.8030  -12.7620 C   0  0  0  0  0  0  0  0  0  0  0  0
   12.0790  -21.9210  -12.1220 N   0  0  0  0  0  0  0  0  0  0  0  0
   12.6620  -21.1170  -11.0540 C   0  0  0  0  0  2  0  0  0  0  0  0
   14.4450  -21.3650  -11.2760 S   0  0  0  0  0  0  0  0  0  0  0  0
   14.2100  -22.7010  -12.3930 C   0  0  0  0  0  0  0  0  0  0  0  0
   11.0680  -21.9530  -12.2160 H   0  0  0  0  0  0  0  0  0  0  0  0
   23.4070  -22.6550  -10.5650 O   0  0  0  0  0  0  0  0  0  0  0  0
   23.6060  -23.5750  -10.7130 H   0  0  0  0  0  0  0  0  0  0  0  0
   24.9410  -23.0110  -16.5700 C   0  0  1  0  0  0  0  0  0  0  0  0
   26.2420  -22.3030  -17.0200 C   0  0  0  0  0  1  0  0  0  0  0  0
   24.5420  -24.0260  -17.6710 C   0  0  0  0  0  1  0  0  0  0  0  0
   23.8460  -21.9240  -16.5100 C   0  0  0  0  0  1  0  0  0  0  0  0
  1 44  1  0
  2  1  1  0
  3  1  1  0
  4  5  1  0
  5  1  1  0
  6  4  1  0
  6 10  1  0
  7  6  1  0
  8 11  1  0
  8 10  1  0
  9  8  2  0
 10 14  1  0
 11 18  1  0
 12  9  1  0
 13  9  1  0
 15 11  1  0
 16 17  2  0
 18 19  1  0
 18 16  1  0
 20 16  1  0
 21 20  1  0
 21 22  1  0
 22 36  2  0
 23 21  1  0
 23 28  1  0
 24 25  1  0
 24 23  2  0
 25 26  2  0
 26 27  1  0
 26 28  1  0
 28 29  1  0
 29 35  2  0
 29 30  1  0
 30 31  1  0
 31 32  1  0
 33 31  2  0
 33 34  1  0
 35 33  1  0
 36 37  1  0
 36 35  1  0
 37 38  1  0
 38 39  2  0
 40 39  1  0
 40 41  1  0
 42 40  2  0
 43 37  2  0
 43 42  1  0
 44 50  1  0
 44 46  1  0
 44 45  1  0
 47 53  1  0
 47 48  1  0
 48 49  2  0
 50 52  1  0
 50 48  1  0
 51 47  1  0
 53 59  1  0
 54 62  1  0
 54 55  1  0
 55 56  1  0
 56 79  1  0
 57 56  1  0
 58 57  1  0
 58 54  1  0
 59 58  1  0
 60 59  2  0
 61 64  1  0
 62 61  1  0
 63 62  2  0
 65 71  1  0
 65 61  1  0
 66 77  1  0
 66 67  1  0
 68 67  2  0
 69 66  2  0
 70 69  1  0
 70 71  2  0
 71 68  1  0
 72 73  1  0
 73 77  2  0
 73 74  1  0
 74 75  1  0
 76 75  1  0
 77 76  1  0
 78 74  1  0
 80 79  1  0
 81 84  1  1
 81 53  1  0
 82 81  1  0
 83 81  1  0
M  ISO  4  16 100  18 100  48 101  50 101
M  END
>  <TORSDO>  (31) 
F 16

>  <SCORE>  (31) 
-12.276

>  <name>  (31) 
30

>  <ligand_id>  (31) 
30

>  <original_smiles>  (31) 
[H]OC1([H])C([H])([H])N(C(=O)C([H])(N([H])C(=O)N([H])[N+]([H])([H])[N+]([H])([H])N=C([H])N([H])N([H])C(N([H])[H])=[N+]([H])N([H])C(=O)C([H])([H])C2([H])N=C(c3c([H])c([H])c(Cl)c([H])c3[H])c3c(sc(C([H])([H])[H])c3C([H])([H])[H])-n3c(C([H])([H])[H])nnc32)C(C([H])([H])[H])(C([H])([H])[H])C([H])([H])[H])C([H])(C(=O)N([H])C([H])([H])c2c([H])c([H])c(C3=C(C([H])([H])[H])N([H])C([H])([H])S3)c([H])c2[H])C1([H])[H]

>  <smiles>  (31) 
[H]OC1([H])C([H])([H])N(C(=O)C([H])(N([H])C(=O)N([H])[N+]([H])([H])[N+]([H])([H])N=C([H])N([H])N([H])C(N([H])[H])=[N+]([H])N([H])C(=O)C([H])([H])C2([H])N=C(c3c([H])c([H])c(Cl)c([H])c3[H])c3c(sc(C([H])([H])[H])c3C([H])([H])[H])-n3c(C([H])([H])[H])nnc32)C(C([H])([H])[H])(C([H])([H])[H])C([H])([H])[H])C([H])(C(=O)N([H])C([H])([H])c2c([H])c([H])c(C3=C(C([H])([H])[H])N([H])C([H])([H])S3)c([H])c2[H])C1([H])[H]

$$$$
31:0:0
     RDKit          3D

 76 83  0  0  1  0  0  0  0  0999 V2000
   25.7980  -24.4530  -15.4650 N   0  0  0  0  0  0  0  0  0  0  0  0
   26.6950  -25.0700  -14.7040 C   0  0  0  0  0  0  0  0  0  0  0  0
   27.2000  -24.5470  -13.6980 O   0  0  0  0  0  0  0  0  0  0  0  0
   28.7000  -26.8820  -18.1280 C   0  0  0  0  0  3  0  0  0  0  0  0
   26.1770  -27.4370  -17.3040 C   0  0  0  0  0  0  0  0  0  0  0  0
   26.6540  -27.7530  -18.6040 C   0  0  0  0  0  0  0  0  0  0  0  0
   27.1230  -26.7700  -16.4450 C   0  0  0  0  0  0  0  0  0  0  0  0
   25.8030  -28.4340  -19.6680 C   0  0  0  0  0  1  0  0  0  0  0  0
   27.9050  -27.4680  -19.0030 N   0  0  0  0  0  0  0  0  0  0  0  0
   28.3730  -26.5320  -16.8940 N   0  0  0  0  0  0  0  0  0  0  0  0
   26.8580  -26.3530  -15.1020 N   0  0  0  0  0  0  0  0  0  0  0  0
   25.4490  -24.9800  -16.2510 H   0  0  0  0  0  0  0  0  0  0  0  0
   27.3600  -26.8970  -14.4170 H   0  0  0  0  0  0  0  0  0  0  0  0
   24.7880  -27.8470  -16.9850 C   0  0  0  0  0  0  0  0  0  0  0  0
   23.6540  -28.3320  -16.9820 C   0  0  0  0  0  0  0  0  0  0  0  0
   22.2630  -28.8880  -17.0320 C   0  0  0  0  0  2  0  0  0  0  0  0
   21.0460  -31.0940  -17.2230 C   0  0  0  0  0  0  0  0  0  0  0  0
   20.1490  -30.6920  -16.4880 O   0  0  0  0  0  0  0  0  0  0  0  0
   22.0710  -30.2660  -17.5660 N   0  0  0  0  0  0  0  0  0  0  0  0
   22.8310  -30.6660  -18.1010 H   0  0  0  0  0  0  0  0  0  0  0  0
   21.1420  -32.6130  -17.5260 C   0  0  0  0  0  2  0  0  0  0  0  0
   21.5850  -33.3670  -16.2370 C   0  0  0  0  0  3  0  0  0  0  0  0
   22.9390  -32.9160  -15.9300 N   0  0  0  0  0  0  0  0  0  0  0  0
   21.5690  -34.8900  -16.2620 C   0  0  0  0  0  0  0  0  0  0  0  0
   21.3270  -35.6790  -17.3160 N   0  0  0  0  0  0  0  0  0  0  0  0
   21.5340  -36.9720  -16.8710 N   0  0  0  0  0  0  0  0  0  0  0  0
   21.8900  -36.8680  -15.5860 C   0  0  0  0  0  0  0  0  0  0  0  0
   22.2750  -38.0430  -14.7370 C   0  0  0  0  0  1  0  0  0  0  0  0
   21.8950  -35.5880  -15.1510 N   0  0  0  0  0  0  0  0  0  0  0  0
   22.1690  -35.0590  -13.8710 C   0  0  0  0  0  0  0  0  0  0  0  0
   21.6530  -35.7480  -12.3640 S   0  0  0  0  0  0  0  0  0  0  0  0
   22.3070  -34.4020  -11.4720 C   0  0  0  0  0  0  0  0  0  0  0  0
   22.1830  -34.3750   -9.9810 C   0  0  0  0  0  1  0  0  0  0  0  0
   22.8790  -33.4600  -12.3000 C   0  0  0  0  0  0  0  0  0  0  0  0
   23.4550  -32.1650  -11.7830 C   0  0  0  0  0  1  0  0  0  0  0  0
   22.8370  -33.8700  -13.6790 C   0  0  0  0  0  0  0  0  0  0  0  0
   23.4710  -33.0910  -14.7860 C   0  0  0  0  0  0  0  0  0  0  0  0
   24.8100  -32.5070  -14.5810 C   0  0  0  0  0  0  0  0  0  0  0  0
   25.8270  -33.2630  -13.9620 C   0  0  0  0  0  3  0  0  0  0  0  0
   27.0950  -32.6910  -13.7490 C   0  0  0  0  0  3  0  0  0  0  0  0
   27.3500  -31.3690  -14.1570 C   0  0  0  0  0  0  0  0  0  0  0  0
   28.9020  -30.6660  -13.8920 Cl  0  0  0  0  0  0  0  0  0  0  0  0
   26.3380  -30.6140  -14.7750 C   0  0  0  0  0  3  0  0  0  0  0  0
   25.0700  -31.1840  -14.9900 C   0  0  0  0  0  3  0  0  0  0  0  0
   24.8890  -23.3850  -15.0810 C   0  0  0  0  0  3  0  0  0  0  0  0
   21.8780  -23.9770  -12.6110 C   0  0  0  0  0  3  0  0  0  0  0  0
   21.3940  -22.8300  -11.7120 C   0  0  0  0  0  2  0  0  0  0  0  0
   22.6300  -21.9870  -11.4810 C   0  0  0  0  0  3  0  0  0  0  0  0
   23.4740  -22.1700  -12.7440 C   0  0  0  0  0  2  0  0  0  0  0  0
   23.0330  -23.4300  -13.3550 N   0  0  0  0  0  0  0  0  0  0  0  0
   23.6760  -24.0650  -14.3670 C   0  0  0  0  0  0  0  0  0  0  0  0
   23.3540  -25.2060  -14.7190 O   0  0  0  0  0  0  0  0  0  0  0  0
   19.9320  -25.4170  -12.9150 N   0  0  0  0  0  0  0  0  0  0  0  0
   20.7050  -24.4780  -13.4700 C   0  0  0  0  0  0  0  0  0  0  0  0
   20.4750  -23.9820  -14.5760 O   0  0  0  0  0  0  0  0  0  0  0  0
   20.2040  -25.7790  -12.0120 H   0  0  0  0  0  0  0  0  0  0  0  0
   18.6650  -25.8910  -13.4550 C   0  0  0  0  0  2  0  0  0  0  0  0
   15.3250  -23.2480  -12.5520 C   0  0  0  0  0  0  0  0  0  0  0  0
   16.3530  -23.4400  -11.6060 C   0  0  0  0  0  3  0  0  0  0  0  0
   17.4340  -24.2900  -11.8950 C   0  0  0  0  0  3  0  0  0  0  0  0
   15.3940  -23.9130  -13.7940 C   0  0  0  0  0  3  0  0  0  0  0  0
   16.4780  -24.7630  -14.0840 C   0  0  0  0  0  3  0  0  0  0  0  0
   17.5030  -24.9580  -13.1370 C   0  0  0  0  0  0  0  0  0  0  0  0
   12.2030  -23.7090  -13.2260 C   0  0  0  0  0  1  0  0  0  0  0  0
   12.8630  -22.5630  -12.4840 C   0  0  0  0  0  0  0  0  0  0  0  0
   12.0490  -21.5840  -11.9540 N   0  0  0  0  0  0  0  0  0  0  0  0
   12.6830  -20.6250  -11.0550 C   0  0  0  0  0  2  0  0  0  0  0  0
   14.4530  -20.9230  -11.3150 S   0  0  0  0  0  0  0  0  0  0  0  0
   14.1630  -22.4160  -12.1950 C   0  0  0  0  0  0  0  0  0  0  0  0
   11.0350  -21.6220  -11.9930 H   0  0  0  0  0  0  0  0  0  0  0  0
   23.3570  -22.4730  -10.3640 O   0  0  0  0  0  0  0  0  0  0  0  0
   23.6060  -23.3760  -10.5340 H   0  0  0  0  0  0  0  0  0  0  0  0
   24.5050  -22.6390  -16.4100 C   0  0  1  0  0  0  0  0  0  0  0  0
   25.7570  -21.9010  -16.9420 C   0  0  0  0  0  1  0  0  0  0  0  0
   24.0060  -23.5960  -17.5230 C   0  0  0  0  0  1  0  0  0  0  0  0
   23.4170  -21.5720  -16.1760 C   0  0  0  0  0  1  0  0  0  0  0  0
  1 45  1  0
  1  2  1  0
  2  3  2  0
  4 10  1  0
  5 14  1  0
  5  7  1  0
  6  5  2  0
  7 11  1  0
  8  6  1  0
  9  6  1  0
  9  4  2  0
 10  7  2  0
 11  2  1  0
 11 13  1  0
 12  1  1  0
 14 15  3  0
 16 15  1  0
 17 18  2  0
 19 17  1  0
 19 16  1  0
 20 19  1  0
 21 17  1  0
 22 21  1  0
 22 23  1  0
 23 37  2  0
 24 22  1  0
 24 29  1  0
 25 26  1  0
 25 24  2  0
 26 27  2  0
 27 29  1  0
 27 28  1  0
 29 30  1  0
 30 36  2  0
 30 31  1  0
 31 32  1  0
 32 33  1  0
 34 35  1  0
 34 32  2  0
 36 34  1  0
 37 38  1  0
 37 36  1  0
 38 39  1  0
 39 40  2  0
 41 42  1  0
 41 40  1  0
 43 41  2  0
 44 43  1  0
 44 38  2  0
 45 51  1  0
 46 54  1  0
 46 47  1  0
 47 48  1  0
 48 71  1  0
 49 48  1  0
 50 49  1  0
 50 46  1  0
 51 50  1  0
 52 51  2  0
 53 56  1  0
 54 53  1  0
 55 54  2  0
 57 63  1  0
 57 53  1  0
 58 69  1  0
 58 59  1  0
 60 59  2  0
 61 58  2  0
 62 61  1  0
 62 63  2  0
 63 60  1  0
 64 65  1  0
 65 69  2  0
 65 66  1  0
 66 67  1  0
 68 67  1  0
 69 68  1  0
 70 66  1  0
 72 71  1  0
 73 76  1  1
 73 45  1  0
 74 73  1  0
 75 73  1  0
M  ISO  4   2 101  11 101  17 100  19 100
M  END
>  <TORSDO>  (32) 
F 14

>  <SCORE>  (32) 
-13.720

>  <name>  (32) 
31

>  <ligand_id>  (32) 
31

>  <original_smiles>  (32) 
[H]OC1([H])C([H])([H])N(C(=O)C([H])(N([H])C(=O)N([H])c2nc([H])nc(C([H])([H])[H])c2C#CC([H])([H])N([H])C(=O)C([H])([H])C2([H])N=C(c3c([H])c([H])c(Cl)c([H])c3[H])c3c(sc(C([H])([H])[H])c3C([H])([H])[H])-n3c(C([H])([H])[H])nnc32)C(C([H])([H])[H])(C([H])([H])[H])C([H])([H])[H])C([H])(C(=O)N([H])C([H])([H])c2c([H])c([H])c(C3=C(C([H])([H])[H])N([H])C([H])([H])S3)c([H])c2[H])C1([H])[H]

>  <smiles>  (32) 
[H]OC1([H])C([H])([H])N(C(=O)C([H])(N([H])C(=O)N([H])c2nc([H])nc(C([H])([H])[H])c2C#CC([H])([H])N([H])C(=O)C([H])([H])C2([H])N=C(c3c([H])c([H])c(Cl)c([H])c3[H])c3c(sc(C([H])([H])[H])c3C([H])([H])[H])-n3c(C([H])([H])[H])nnc32)C(C([H])([H])[H])(C([H])([H])[H])C([H])([H])[H])C([H])(C(=O)N([H])C([H])([H])c2c([H])c([H])c(C3=C(C([H])([H])[H])N([H])C([H])([H])S3)c([H])c2[H])C1([H])[H]

$$$$
32:0:0
     RDKit          3D

 77 85  0  0  1  0  0  0  0  0999 V2000
   26.2610  -27.2850  -18.6930 C   0  0  0  0  0  0  0  0  0  0  0  0
   24.0280  -30.3910  -19.3170 C   0  0  0  0  0  2  0  0  0  0  0  0
   25.4040  -29.7050  -19.2430 C   0  0  0  0  0  2  0  0  0  0  0  0
   23.4100  -30.8030  -17.9540 C   0  0  0  0  0  2  0  0  0  0  0  0
   25.1250  -26.1610  -16.8940 C   0  0  0  0  0  2  0  0  0  0  0  0
   25.2730  -28.4340  -18.3930 C   0  0  0  0  0  3  0  0  0  0  0  0
   25.1750  -28.8610  -16.9000 C   0  0  0  0  0  3  0  0  0  0  0  0
   22.8220  -29.5890  -17.1510 C   0  0  0  0  0  3  0  0  0  0  0  0
   25.7650  -26.8250  -15.6580 C   0  0  0  0  0  3  0  0  0  0  0  0
   27.1430  -27.3850  -19.5470 O   0  0  0  0  0  0  0  0  0  0  0  0
   26.0510  -26.1500  -17.9770 O   0  0  0  0  0  0  0  0  0  0  0  0
   23.8210  -28.7910  -16.4840 O   0  0  0  0  0  0  0  0  0  0  0  0
   26.1000  -28.1420  -16.0700 O   0  0  0  0  0  0  0  0  0  0  0  0
   21.9420  -30.0140  -16.1340 O   0  0  0  0  0  0  0  0  0  0  0  0
   20.6310  -30.4310  -16.3480 C   0  0  0  0  0  0  0  0  0  0  0  0
   19.7830  -29.9870  -15.5810 O   0  0  0  0  0  0  0  0  0  0  0  0
   20.4840  -31.8820  -16.8800 C   0  0  0  0  0  2  0  0  0  0  0  0
   20.9680  -32.9010  -15.8140 C   0  0  0  0  0  3  0  0  0  0  0  0
   22.3680  -32.6270  -15.5190 N   0  0  0  0  0  0  0  0  0  0  0  0
   20.8420  -34.3690  -16.1620 C   0  0  0  0  0  0  0  0  0  0  0  0
   20.5170  -34.8910  -17.3500 N   0  0  0  0  0  0  0  0  0  0  0  0
   20.6710  -36.2590  -17.2080 N   0  0  0  0  0  0  0  0  0  0  0  0
   21.0880  -36.4520  -15.9510 C   0  0  0  0  0  0  0  0  0  0  0  0
   21.4450  -37.7990  -15.3980 C   0  0  0  0  0  1  0  0  0  0  0  0
   21.1810  -35.3030  -15.2490 N   0  0  0  0  0  0  0  0  0  0  0  0
   21.5440  -35.0730  -13.9020 C   0  0  0  0  0  0  0  0  0  0  0  0
   21.0540  -36.0390  -12.5480 S   0  0  0  0  0  0  0  0  0  0  0  0
   21.8280  -34.9470  -11.4310 C   0  0  0  0  0  0  0  0  0  0  0  0
   21.7740  -35.2320   -9.9650 C   0  0  0  0  0  1  0  0  0  0  0  0
   22.4160  -33.8790  -12.0720 C   0  0  0  0  0  0  0  0  0  0  0  0
   23.0870  -32.7520  -11.3290 C   0  0  0  0  0  1  0  0  0  0  0  0
   22.2920  -33.9870  -13.5020 C   0  0  0  0  0  0  0  0  0  0  0  0
   22.9280  -33.0340  -14.4540 C   0  0  0  0  0  0  0  0  0  0  0  0
   24.3010  -32.5650  -14.1980 C   0  0  0  0  0  0  0  0  0  0  0  0
   25.3260  -33.4990  -13.9440 C   0  0  0  0  0  3  0  0  0  0  0  0
   26.6370  -33.0550  -13.6890 C   0  0  0  0  0  3  0  0  0  0  0  0
   26.9190  -31.6790  -13.6580 C   0  0  0  0  0  0  0  0  0  0  0  0
   28.5180  -31.1150  -13.3500 Cl  0  0  0  0  0  0  0  0  0  0  0  0
   25.8850  -30.7550  -13.8500 C   0  0  0  0  0  3  0  0  0  0  0  0
   24.5840  -31.1870  -14.1540 C   0  0  0  0  0  3  0  0  0  0  0  0
   26.9030  -26.1220  -15.0400 O   0  0  0  0  0  0  0  0  0  0  0  0
   25.9200  -24.0510  -15.1020 N   0  0  0  0  0  0  0  0  0  0  0  0
   26.8140  -24.8210  -14.4310 C   0  0  0  0  0  0  0  0  0  0  0  0
   27.4570  -24.4060  -13.4520 O   0  0  0  0  0  0  0  0  0  0  0  0
   25.6600  -24.4310  -15.9950 H   0  0  0  0  0  0  0  0  0  0  0  0
   25.0190  -23.0160  -14.6420 C   0  0  0  0  0  3  0  0  0  0  0  0
   21.7520  -23.4870  -12.4870 C   0  0  0  0  0  3  0  0  0  0  0  0
   21.0890  -22.2600  -11.8390 C   0  0  0  0  0  2  0  0  0  0  0  0
   22.2350  -21.3010  -11.5930 C   0  0  0  0  0  3  0  0  0  0  0  0
   23.2450  -21.6020  -12.6990 C   0  0  0  0  0  2  0  0  0  0  0  0
   22.9610  -22.9680  -13.1620 N   0  0  0  0  0  0  0  0  0  0  0  0
   23.7720  -23.6890  -13.9780 C   0  0  0  0  0  0  0  0  0  0  0  0
   23.5810  -24.8940  -14.1820 O   0  0  0  0  0  0  0  0  0  0  0  0
   20.0160  -25.1670  -12.8160 N   0  0  0  0  0  0  0  0  0  0  0  0
   20.7310  -24.1950  -13.3920 C   0  0  0  0  0  0  0  0  0  0  0  0
   20.5570  -23.8290  -14.5580 O   0  0  0  0  0  0  0  0  0  0  0  0
   20.2330  -25.4140  -11.8600 H   0  0  0  0  0  0  0  0  0  0  0  0
   18.8690  -25.8340  -13.4160 C   0  0  0  0  0  2  0  0  0  0  0  0
   15.1480  -23.6420  -12.8760 C   0  0  0  0  0  0  0  0  0  0  0  0
   16.1250  -23.6380  -11.8610 C   0  0  0  0  0  3  0  0  0  0  0  0
   17.3300  -24.3420  -12.0330 C   0  0  0  0  0  3  0  0  0  0  0  0
   15.3900  -24.3560  -14.0700 C   0  0  0  0  0  3  0  0  0  0  0  0
   16.5970  -25.0600  -14.2430 C   0  0  0  0  0  3  0  0  0  0  0  0
   17.5730  -25.0580  -13.2250 C   0  0  0  0  0  0  0  0  0  0  0  0
   12.1670  -24.5920  -13.6670 C   0  0  0  0  0  1  0  0  0  0  0  0
   12.6130  -23.3160  -12.9810 C   0  0  0  0  0  0  0  0  0  0  0  0
   11.6400  -22.4300  -12.5660 N   0  0  0  0  0  0  0  0  0  0  0  0
   12.0800  -21.3320  -11.7130 C   0  0  0  0  0  2  0  0  0  0  0  0
   13.8860  -21.3890  -11.8630 S   0  0  0  0  0  0  0  0  0  0  0  0
   13.8610  -22.9650  -12.6400 C   0  0  0  0  0  0  0  0  0  0  0  0
   10.6450  -22.6180  -12.6520 H   0  0  0  0  0  0  0  0  0  0  0  0
   22.8390  -21.5560  -10.3350 O   0  0  0  0  0  0  0  0  0  0  0  0
   23.1600  -22.4520  -10.3270 H   0  0  0  0  0  0  0  0  0  0  0  0
   24.6930  -22.1340  -15.9120 C   0  0  1  0  0  0  0  0  0  0  0  0
   26.0070  -21.4640  -16.3830 C   0  0  0  0  0  1  0  0  0  0  0  0
   24.0950  -22.8600  -17.1430 C   0  0  0  0  0  1  0  0  0  0  0  0
   23.6840  -21.0280  -15.5620 C   0  0  0  0  0  1  0  0  0  0  0  0
  1  6  1  0
  1 11  1  0
  2  3  1  0
  2  4  1  0
  4  8  1  0
  5  9  1  0
  6  3  1  0
  6  7  1  0
  7 12  1  0
  7 13  1  0
  8 12  1  0
  8 14  1  0
  9 41  1  0
 10  1  2  0
 11  5  1  0
 13  9  1  0
 15 14  1  0
 15 16  2  0
 17 15  1  0
 18 17  1  0
 18 19  1  0
 19 33  2  0
 20 18  1  0
 20 25  1  0
 21 22  1  0
 21 20  2  0
 22 23  2  0
 23 24  1  0
 23 25  1  0
 25 26  1  0
 26 32  2  0
 26 27  1  0
 27 28  1  0
 28 29  1  0
 30 28  2  0
 30 31  1  0
 32 30  1  0
 33 34  1  0
 33 32  1  0
 34 40  2  0
 34 35  1  0
 35 36  2  0
 36 37  1  0
 37 38  1  0
 39 37  2  0
 40 39  1  0
 41 43  1  0
 42 46  1  0
 42 43  1  0
 43 44  2  0
 45 42  1  0
 46 52  1  0
 47 55  1  0
 47 48  1  0
 48 49  1  0
 49 72  1  0
 50 49  1  0
 51 50  1  0
 51 47  1  0
 52 51  1  0
 53 52  2  0
 54 57  1  0
 55 54  1  0
 56 55  2  0
 58 64  1  0
 58 54  1  0
 59 70  1  0
 59 60  1  0
 61 60  2  0
 62 59  2  0
 63 62  1  0
 63 64  2  0
 64 61  1  0
 65 66  1  0
 66 70  2  0
 66 67  1  0
 67 68  1  0
 69 68  1  0
 70 69  1  0
 71 67  1  0
 72 73  1  0
 74 77  1  1
 74 46  1  0
 75 74  1  0
 76 74  1  0
M  ISO  4  14 100  15 100  41 101  43 101
M  END
>  <TORSDO>  (33) 
F 15

>  <SCORE>  (33) 
1.098

>  <name>  (33) 
32

>  <ligand_id>  (33) 
32

>  <original_smiles>  (33) 
[H]OC1([H])C([H])([H])N(C(=O)C([H])(N([H])C(=O)OC2([H])OC3([H])OC([H])(OC(=O)C([H])([H])C4([H])N=C(c5c([H])c([H])c(Cl)c([H])c5[H])c5c(sc(C([H])([H])[H])c5C([H])([H])[H])-n5c(C([H])([H])[H])nnc54)C([H])([H])C([H])([H])C([H])([H])C3([H])C(=O)OC2([H])[H])C(C([H])([H])[H])(C([H])([H])[H])C([H])([H])[H])C([H])(C(=O)N([H])C([H])([H])c2c([H])c([H])c(C3=C(C([H])([H])[H])N([H])C([H])([H])S3)c([H])c2[H])C1([H])[H]

>  <smiles>  (33) 
[H]OC1([H])C([H])([H])N(C(=O)C([H])(N([H])C(=O)OC2([H])OC3([H])OC([H])(OC(=O)C([H])([H])C4([H])N=C(c5c([H])c([H])c(Cl)c([H])c5[H])c5c(sc(C([H])([H])[H])c5C([H])([H])[H])-n5c(C([H])([H])[H])nnc54)C([H])([H])C([H])([H])C([H])([H])C3([H])C(=O)OC2([H])[H])C(C([H])([H])[H])(C([H])([H])[H])C([H])([H])[H])C([H])(C(=O)N([H])C([H])([H])c2c([H])c([H])c(C3=C(C([H])([H])[H])N([H])C([H])([H])S3)c([H])c2[H])C1([H])[H]

$$$$
33:0:0
     RDKit          3D

 76 82  0  0  1  0  0  0  0  0999 V2000
   26.0030  -24.6290  -15.7610 N   0  0  0  0  0  0  0  0  0  0  0  0
   26.9390  -25.1390  -14.9720 C   0  0  0  0  0  0  0  0  0  0  0  0
   27.4170  -24.5720  -13.9850 O   0  0  0  0  0  0  0  0  0  0  0  0
   27.1130  -26.4280  -15.2790 N   0  0  0  0  0  0  0  0  0  0  0  0
   25.6530  -25.2570  -16.4660 H   0  0  0  0  0  0  0  0  0  0  0  0
   27.2160  -26.6100  -16.2680 H   0  0  0  0  0  0  0  0  0  0  0  0
   26.1900  -27.3410  -14.7230 N   0  0  0  0  0  0  0  0  0  0  0  0
   26.1050  -27.3220  -13.7080 H   0  0  0  0  0  0  0  0  0  0  0  0
   25.0830  -27.8270  -16.6530 N   0  0  0  0  0  0  0  0  0  0  0  0
   25.0780  -27.8190  -15.4010 N   0  0  0  0  0  0  0  0  0  0  0  0
   22.8030  -28.8020  -16.9680 C   0  0  0  0  0  0  0  0  0  0  0  0
   23.9870  -28.3270  -17.4250 N   0  0  0  0  0  0  0  0  0  0  0  0
   22.5410  -28.9590  -15.7740 O   0  0  0  0  0  0  0  0  0  0  0  0
   24.1140  -28.2590  -18.4250 H   0  0  0  0  0  0  0  0  0  0  0  0
   21.9680  -28.5010  -19.3830 C   0  0  0  0  0  1  0  0  0  0  0  0
   21.7100  -29.1650  -18.0140 C   0  0  0  0  0  3  0  0  0  0  0  0
   20.8900  -31.4440  -17.4020 C   0  0  0  0  0  0  0  0  0  0  0  0
   20.2020  -31.0020  -16.4830 O   0  0  0  0  0  0  0  0  0  0  0  0
   21.5970  -30.6230  -18.1980 N   0  0  0  0  0  0  0  0  0  0  0  0
   22.1910  -31.0450  -18.8980 H   0  0  0  0  0  0  0  0  0  0  0  0
   21.0470  -32.9670  -17.5740 C   0  0  0  0  0  2  0  0  0  0  0  0
   21.4930  -33.6440  -16.2470 C   0  0  0  0  0  3  0  0  0  0  0  0
   22.8230  -33.1450  -15.8940 N   0  0  0  0  0  0  0  0  0  0  0  0
   21.5120  -35.1630  -16.2700 C   0  0  0  0  0  0  0  0  0  0  0  0
   21.3160  -35.9480  -17.3360 N   0  0  0  0  0  0  0  0  0  0  0  0
   21.5190  -37.2410  -16.8900 N   0  0  0  0  0  0  0  0  0  0  0  0
   21.8260  -37.1350  -15.5930 C   0  0  0  0  0  0  0  0  0  0  0  0
   22.1840  -38.3090  -14.7340 C   0  0  0  0  0  1  0  0  0  0  0  0
   21.8060  -35.8590  -15.1520 N   0  0  0  0  0  0  0  0  0  0  0  0
   22.0220  -35.3290  -13.8650 C   0  0  0  0  0  0  0  0  0  0  0  0
   21.4570  -36.0270  -12.3800 S   0  0  0  0  0  0  0  0  0  0  0  0
   22.0640  -34.6770  -11.4610 C   0  0  0  0  0  0  0  0  0  0  0  0
   21.8840  -34.6560   -9.9760 C   0  0  0  0  0  1  0  0  0  0  0  0
   22.6540  -33.7260  -12.2660 C   0  0  0  0  0  0  0  0  0  0  0  0
   23.1990  -32.4290  -11.7230 C   0  0  0  0  0  1  0  0  0  0  0  0
   22.6650  -34.1280  -13.6500 C   0  0  0  0  0  0  0  0  0  0  0  0
   23.3260  -33.3320  -14.7330 C   0  0  0  0  0  0  0  0  0  0  0  0
   24.6620  -32.7540  -14.4740 C   0  0  0  0  0  0  0  0  0  0  0  0
   25.6330  -33.5030  -13.7730 C   0  0  0  0  0  3  0  0  0  0  0  0
   26.8950  -32.9450  -13.4960 C   0  0  0  0  0  3  0  0  0  0  0  0
   27.1990  -31.6460  -13.9360 C   0  0  0  0  0  0  0  0  0  0  0  0
   28.7380  -30.9440  -13.6060 Cl  0  0  0  0  0  0  0  0  0  0  0  0
   26.2500  -30.9180  -14.6640 C   0  0  0  0  0  3  0  0  0  0  0  0
   24.9760  -31.4550  -14.9220 C   0  0  0  0  0  3  0  0  0  0  0  0
   25.0660  -23.5620  -15.4290 C   0  0  0  0  0  3  0  0  0  0  0  0
   22.0530  -24.0960  -12.9500 C   0  0  0  0  0  3  0  0  0  0  0  0
   21.6000  -22.9410  -12.0430 C   0  0  0  0  0  2  0  0  0  0  0  0
   22.8560  -22.1280  -11.8170 C   0  0  0  0  0  3  0  0  0  0  0  0
   23.6910  -22.3270  -13.0820 C   0  0  0  0  0  2  0  0  0  0  0  0
   23.2160  -23.5710  -13.6950 N   0  0  0  0  0  0  0  0  0  0  0  0
   23.8390  -24.2130  -14.7160 C   0  0  0  0  0  0  0  0  0  0  0  0
   23.4720  -25.3340  -15.0800 O   0  0  0  0  0  0  0  0  0  0  0  0
   20.0840  -25.5070  -13.2540 N   0  0  0  0  0  0  0  0  0  0  0  0
   20.8630  -24.5680  -13.8020 C   0  0  0  0  0  0  0  0  0  0  0  0
   20.6240  -24.0500  -14.8960 O   0  0  0  0  0  0  0  0  0  0  0  0
   20.3640  -25.8910  -12.3620 H   0  0  0  0  0  0  0  0  0  0  0  0
   18.8060  -25.9570  -13.7880 C   0  0  0  0  0  2  0  0  0  0  0  0
   15.4900  -23.3500  -12.7050 C   0  0  0  0  0  0  0  0  0  0  0  0
   16.5360  -23.5840  -11.7890 C   0  0  0  0  0  3  0  0  0  0  0  0
   17.6090  -24.4220  -12.1350 C   0  0  0  0  0  3  0  0  0  0  0  0
   15.5320  -23.9620  -13.9760 C   0  0  0  0  0  3  0  0  0  0  0  0
   16.6080  -24.8010  -14.3230 C   0  0  0  0  0  3  0  0  0  0  0  0
   17.6520  -25.0370  -13.4060 C   0  0  0  0  0  0  0  0  0  0  0  0
   12.3570  -23.7610  -13.3600 C   0  0  0  0  0  1  0  0  0  0  0  0
   13.0330  -22.6580  -12.5670 C   0  0  0  0  0  0  0  0  0  0  0  0
   12.2310  -21.7050  -11.9740 N   0  0  0  0  0  0  0  0  0  0  0  0
   12.8840  -20.7960  -11.0370 C   0  0  0  0  0  2  0  0  0  0  0  0
   14.6480  -21.0880  -11.3380 S   0  0  0  0  0  0  0  0  0  0  0  0
   14.3380  -22.5330  -12.2900 C   0  0  0  0  0  0  0  0  0  0  0  0
   11.2170  -21.7380  -11.9990 H   0  0  0  0  0  0  0  0  0  0  0  0
   23.5770  -22.6340  -10.7060 O   0  0  0  0  0  0  0  0  0  0  0  0
   23.8060  -23.5420  -10.8810 H   0  0  0  0  0  0  0  0  0  0  0  0
   24.6990  -22.8470  -16.7780 C   0  0  1  0  0  0  0  0  0  0  0  0
   25.9550  -22.1150  -17.3040 C   0  0  0  0  0  1  0  0  0  0  0  0
   24.2150  -23.8220  -17.8810 C   0  0  0  0  0  1  0  0  0  0  0  0
   23.6060  -21.7790  -16.5740 C   0  0  0  0  0  1  0  0  0  0  0  0
  1 45  1  0
  1  2  1  0
  2  3  2  0
  4  2  1  0
  4  7  1  0
  5  1  1  0
  6  4  1  0
  7  8  1  0
  9 10  2  0
 10  7  1  0
 11 13  2  0
 12 11  1  0
 12  9  1  0
 14 12  1  0
 16 15  1  0
 16 11  1  0
 17 18  2  0
 19 16  1  0
 19 17  1  0
 20 19  1  0
 21 17  1  0
 22 21  1  0
 22 23  1  0
 23 37  2  0
 24 22  1  0
 24 29  1  0
 25 26  1  0
 25 24  2  0
 26 27  2  0
 27 29  1  0
 27 28  1  0
 29 30  1  0
 30 36  2  0
 30 31  1  0
 31 32  1  0
 32 33  1  0
 34 35  1  0
 34 32  2  0
 36 34  1  0
 37 38  1  0
 37 36  1  0
 38 39  1  0
 39 40  2  0
 41 42  1  0
 41 40  1  0
 43 41  2  0
 44 43  1  0
 44 38  2  0
 45 51  1  0
 46 54  1  0
 46 47  1  0
 47 48  1  0
 48 71  1  0
 49 48  1  0
 50 49  1  0
 50 46  1  0
 51 50  1  0
 52 51  2  0
 53 56  1  0
 54 53  1  0
 55 54  2  0
 57 63  1  0
 57 53  1  0
 58 69  1  0
 58 59  1  0
 60 59  2  0
 61 58  2  0
 62 61  1  0
 62 63  2  0
 63 60  1  0
 64 65  1  0
 65 69  2  0
 65 66  1  0
 66 67  1  0
 68 67  1  0
 69 68  1  0
 70 66  1  0
 72 71  1  0
 73 76  1  1
 73 45  1  0
 74 73  1  0
 75 73  1  0
M  ISO  4   2 101   4 101  17 100  19 100
M  END
>  <TORSDO>  (34) 
F 16

>  <SCORE>  (34) 
-14.042

>  <name>  (34) 
33

>  <ligand_id>  (34) 
33

>  <original_smiles>  (34) 
[H]OC1([H])C([H])([H])N(C(=O)C([H])(N([H])C(=O)N([H])N([H])N=NN([H])C(=O)C([H])(N([H])C(=O)C([H])([H])C2([H])N=C(c3c([H])c([H])c(Cl)c([H])c3[H])c3c(sc(C([H])([H])[H])c3C([H])([H])[H])-n3c(C([H])([H])[H])nnc32)C([H])([H])[H])C(C([H])([H])[H])(C([H])([H])[H])C([H])([H])[H])C([H])(C(=O)N([H])C([H])([H])c2c([H])c([H])c(C3=C(C([H])([H])[H])N([H])C([H])([H])S3)c([H])c2[H])C1([H])[H]

>  <smiles>  (34) 
[H]OC1([H])C([H])([H])N(C(=O)C([H])(N([H])C(=O)N([H])N([H])N=NN([H])C(=O)C([H])(N([H])C(=O)C([H])([H])C2([H])N=C(c3c([H])c([H])c(Cl)c([H])c3[H])c3c(sc(C([H])([H])[H])c3C([H])([H])[H])-n3c(C([H])([H])[H])nnc32)C([H])([H])[H])C(C([H])([H])[H])(C([H])([H])[H])C([H])([H])[H])C([H])(C(=O)N([H])C([H])([H])c2c([H])c([H])c(C3=C(C([H])([H])[H])N([H])C([H])([H])S3)c([H])c2[H])C1([H])[H]

$$$$
34:0:0
     RDKit          3D

 74 81  0  0  1  0  0  0  0  0999 V2000
   26.0090  -24.5370  -15.7770 N   0  0  0  0  0  0  0  0  0  0  0  0
   26.8560  -25.1040  -14.9270 C   0  0  0  0  0  0  0  0  0  0  0  0
   27.3530  -24.5360  -13.9500 O   0  0  0  0  0  0  0  0  0  0  0  0
   26.9460  -26.4080  -15.1850 N   0  0  0  0  0  0  0  0  0  0  0  0
   25.7090  -25.1020  -16.5580 H   0  0  0  0  0  0  0  0  0  0  0  0
   27.0670  -26.6030  -16.1710 H   0  0  0  0  0  0  0  0  0  0  0  0
   25.0460  -23.4940  -15.4310 C   0  0  0  0  0  3  0  0  0  0  0  0
   22.0700  -24.1240  -12.9150 C   0  0  0  0  0  3  0  0  0  0  0  0
   21.6320  -23.0060  -11.9560 C   0  0  0  0  0  2  0  0  0  0  0  0
   22.8960  -22.2040  -11.7180 C   0  0  0  0  0  3  0  0  0  0  0  0
   23.7060  -22.3490  -13.0040 C   0  0  0  0  0  2  0  0  0  0  0  0
   23.2210  -23.5670  -13.6610 N   0  0  0  0  0  0  0  0  0  0  0  0
   23.8250  -24.1640  -14.7180 C   0  0  0  0  0  0  0  0  0  0  0  0
   23.4500  -25.2680  -15.1220 O   0  0  0  0  0  0  0  0  0  0  0  0
   20.0810  -25.5050  -13.2240 N   0  0  0  0  0  0  0  0  0  0  0  0
   20.8650  -24.5650  -13.7640 C   0  0  0  0  0  0  0  0  0  0  0  0
   20.6210  -24.0240  -14.8450 O   0  0  0  0  0  0  0  0  0  0  0  0
   20.3630  -25.9080  -12.3420 H   0  0  0  0  0  0  0  0  0  0  0  0
   18.7920  -25.9290  -13.7550 C   0  0  0  0  0  2  0  0  0  0  0  0
   15.5330  -23.2570  -12.6580 C   0  0  0  0  0  0  0  0  0  0  0  0
   16.5880  -23.4980  -11.7530 C   0  0  0  0  0  3  0  0  0  0  0  0
   17.6420  -24.3580  -12.1050 C   0  0  0  0  0  3  0  0  0  0  0  0
   15.5480  -23.8830  -13.9220 C   0  0  0  0  0  3  0  0  0  0  0  0
   16.6050  -24.7440  -14.2740 C   0  0  0  0  0  3  0  0  0  0  0  0
   17.6580  -24.9860  -13.3680 C   0  0  0  0  0  0  0  0  0  0  0  0
   12.3800  -23.6540  -13.2140 C   0  0  0  0  0  1  0  0  0  0  0  0
   13.0870  -22.5380  -12.4730 C   0  0  0  0  0  0  0  0  0  0  0  0
   12.3120  -21.5580  -11.8870 N   0  0  0  0  0  0  0  0  0  0  0  0
   12.9970  -20.6260  -10.9990 C   0  0  0  0  0  2  0  0  0  0  0  0
   14.7490  -20.9460  -11.3360 S   0  0  0  0  0  0  0  0  0  0  0  0
   14.4000  -22.4160  -12.2340 C   0  0  0  0  0  0  0  0  0  0  0  0
   11.2960  -21.5790  -11.8880 H   0  0  0  0  0  0  0  0  0  0  0  0
   23.6350  -22.7560  -10.6400 O   0  0  0  0  0  0  0  0  0  0  0  0
   23.8550  -23.6570  -10.8560 H   0  0  0  0  0  0  0  0  0  0  0  0
   24.6650  -22.7680  -16.7680 C   0  0  1  0  0  0  0  0  0  0  0  0
   25.9110  -22.0180  -17.2940 C   0  0  0  0  0  1  0  0  0  0  0  0
   24.1790  -23.7370  -17.8760 C   0  0  0  0  0  1  0  0  0  0  0  0
   23.5650  -21.7120  -16.5430 C   0  0  0  0  0  1  0  0  0  0  0  0
   25.8630  -27.2980  -14.7310 C   0  0  0  0  0  2  0  0  0  0  0  0
   24.9480  -27.6820  -15.8870 C   0  0  0  0  0  0  0  0  0  0  0  0
   23.3540  -28.4150  -17.0500 C   0  0  0  0  0  3  0  0  0  0  0  0
   24.2650  -27.6790  -19.3110 C   0  0  0  0  0  1  0  0  0  0  0  0
   23.7500  -28.3450  -15.7710 N   0  0  0  0  0  0  0  0  0  0  0  0
   25.2960  -27.3800  -17.1390 N   0  0  0  0  0  2  0  0  0  0  0  0
   24.2610  -27.8610  -17.8730 N   0  0  0  0  0  0  0  0  0  0  0  0
   22.0050  -28.9270  -17.5390 C   0  0  0  0  0  2  0  0  0  0  0  0
   21.0560  -31.2430  -17.3070 C   0  0  0  0  0  0  0  0  0  0  0  0
   20.2170  -30.8510  -16.5010 O   0  0  0  0  0  0  0  0  0  0  0  0
   21.9690  -30.3840  -17.8110 N   0  0  0  0  0  0  0  0  0  0  0  0
   22.7050  -30.7620  -18.3900 H   0  0  0  0  0  0  0  0  0  0  0  0
   21.1860  -32.7610  -17.5750 C   0  0  0  0  0  2  0  0  0  0  0  0
   21.5720  -33.4970  -16.2610 C   0  0  0  0  0  3  0  0  0  0  0  0
   22.9170  -33.0630  -15.9010 N   0  0  0  0  0  0  0  0  0  0  0  0
   21.5280  -35.0180  -16.2830 C   0  0  0  0  0  0  0  0  0  0  0  0
   21.3200  -35.8060  -17.3440 N   0  0  0  0  0  0  0  0  0  0  0  0
   21.4750  -37.1030  -16.8850 N   0  0  0  0  0  0  0  0  0  0  0  0
   21.7720  -36.9970  -15.5860 C   0  0  0  0  0  0  0  0  0  0  0  0
   22.0870  -38.1740  -14.7120 C   0  0  0  0  0  1  0  0  0  0  0  0
   21.7870  -35.7180  -15.1560 N   0  0  0  0  0  0  0  0  0  0  0  0
   22.0110  -35.1870  -13.8680 C   0  0  0  0  0  0  0  0  0  0  0  0
   21.4080  -35.8520  -12.3840 S   0  0  0  0  0  0  0  0  0  0  0  0
   22.0510  -34.5150  -11.4710 C   0  0  0  0  0  0  0  0  0  0  0  0
   21.8570  -34.4750   -9.9890 C   0  0  0  0  0  1  0  0  0  0  0  0
   22.6820  -33.5930  -12.2760 C   0  0  0  0  0  0  0  0  0  0  0  0
   23.2630  -32.3090  -11.7380 C   0  0  0  0  0  1  0  0  0  0  0  0
   22.6960  -34.0100  -13.6540 C   0  0  0  0  0  0  0  0  0  0  0  0
   23.3990  -33.2530  -14.7350 C   0  0  0  0  0  0  0  0  0  0  0  0
   24.7470  -32.7120  -14.4690 C   0  0  0  0  0  0  0  0  0  0  0  0
   25.6830  -33.4620  -13.7270 C   0  0  0  0  0  3  0  0  0  0  0  0
   26.9560  -32.9270  -13.4520 C   0  0  0  0  0  3  0  0  0  0  0  0
   27.3030  -31.6540  -13.9370 C   0  0  0  0  0  0  0  0  0  0  0  0
   28.8540  -30.9820  -13.6030 Cl  0  0  0  0  0  0  0  0  0  0  0  0
   26.3880  -30.9320  -14.7170 C   0  0  0  0  0  3  0  0  0  0  0  0
   25.1050  -31.4460  -14.9680 C   0  0  0  0  0  3  0  0  0  0  0  0
  1  7  1  0
  1  2  1  0
  2  3  2  0
  4  2  1  0
  4 39  1  0
  5  1  1  0
  6  4  1  0
  7 13  1  0
  8 16  1  0
  8  9  1  0
  9 10  1  0
 10 33  1  0
 11 10  1  0
 12 11  1  0
 12  8  1  0
 13 12  1  0
 14 13  2  0
 15 18  1  0
 16 15  1  0
 17 16  2  0
 19 25  1  0
 19 15  1  0
 20 31  1  0
 20 21  1  0
 22 21  2  0
 23 20  2  0
 24 23  1  0
 24 25  2  0
 25 22  1  0
 26 27  1  0
 27 31  2  0
 27 28  1  0
 28 29  1  0
 30 29  1  0
 31 30  1  0
 32 28  1  0
 34 33  1  0
 35 38  1  1
 35  7  1  0
 36 35  1  0
 37 35  1  0
 40 43  2  0
 40 39  1  0
 41 46  1  0
 41 43  1  0
 42 45  1  0
 44 40  1  0
 45 44  1  0
 45 41  1  0
 47 48  2  0
 49 46  1  0
 49 47  1  0
 50 49  1  0
 51 47  1  0
 52 51  1  0
 52 53  1  0
 53 67  2  0
 54 52  1  0
 54 59  1  0
 55 56  1  0
 55 54  2  0
 56 57  2  0
 57 59  1  0
 57 58  1  0
 59 60  1  0
 60 66  2  0
 60 61  1  0
 61 62  1  0
 62 63  1  0
 64 65  1  0
 64 62  2  0
 66 64  1  0
 67 68  1  0
 67 66  1  0
 68 69  1  0
 69 70  2  0
 71 72  1  0
 71 70  1  0
 73 71  2  0
 74 73  1  0
 74 68  2  0
M  ISO  4   2 101   4 101  47 100  49 100
M  END
>  <TORSDO>  (35) 
F 15

>  <SCORE>  (35) 
-13.623

>  <name>  (35) 
34

>  <ligand_id>  (35) 
34

>  <original_smiles>  (35) 
[H]OC1([H])C([H])([H])N(C(=O)C([H])(N([H])C(=O)N([H])C([H])([H])c2nc(C([H])([H])N([H])C(=O)C([H])([H])C3([H])N=C(c4c([H])c([H])c(Cl)c([H])c4[H])c4c(sc(C([H])([H])[H])c4C([H])([H])[H])-n4c(C([H])([H])[H])nnc43)n(C([H])([H])[H])n2)C(C([H])([H])[H])(C([H])([H])[H])C([H])([H])[H])C([H])(C(=O)N([H])C([H])([H])c2c([H])c([H])c(C3=C(C([H])([H])[H])N([H])C([H])([H])S3)c([H])c2[H])C1([H])[H]

>  <smiles>  (35) 
[H]OC1([H])C([H])([H])N(C(=O)C([H])(N([H])C(=O)N([H])C([H])([H])c2nc(C([H])([H])N([H])C(=O)C([H])([H])C3([H])N=C(c4c([H])c([H])c(Cl)c([H])c4[H])c4c(sc(C([H])([H])[H])c4C([H])([H])[H])-n4c(C([H])([H])[H])nnc43)n(C([H])([H])[H])n2)C(C([H])([H])[H])(C([H])([H])[H])C([H])([H])[H])C([H])(C(=O)N([H])C([H])([H])c2c([H])c([H])c(C3=C(C([H])([H])[H])N([H])C([H])([H])S3)c([H])c2[H])C1([H])[H]

$$$$
35:0:0
     RDKit          3D

 80 87  0  0  1  0  0  0  0  0999 V2000
   25.3970  -28.2810  -16.3120 C   0  0  0  0  0  0  0  0  0  0  0  0
   26.5810  -28.6320  -16.8120 N   0  0  0  0  0  4  0  0  0  0  0  0
   25.4020  -27.3150  -15.3500 N   0  0  0  0  0  0  0  0  0  0  0  0
   24.2860  -28.8970  -16.8170 N   0  0  0  0  0  0  0  0  0  0  0  0
   27.4090  -28.1460  -16.4980 H   0  0  0  0  0  0  0  0  0  0  0  0
   26.6920  -29.3060  -17.5550 H   0  0  0  0  0  0  0  0  0  0  0  0
   24.5270  -26.9360  -14.9840 H   0  0  0  0  0  0  0  0  0  0  0  0
   24.4300  -29.6800  -17.4360 H   0  0  0  0  0  0  0  0  0  0  0  0
   25.8970  -24.7500  -15.5600 N   0  0  0  0  0  0  0  0  0  0  0  0
   26.6550  -25.3650  -14.6620 C   0  0  0  0  0  0  0  0  0  0  0  0
   27.2170  -24.7600  -13.7360 O   0  0  0  0  0  0  0  0  0  0  0  0
   26.6230  -26.7120  -14.8380 N   0  0  0  0  0  0  0  0  0  0  0  0
   25.6450  -25.3110  -16.3560 H   0  0  0  0  0  0  0  0  0  0  0  0
   27.0390  -27.3540  -14.1770 H   0  0  0  0  0  0  0  0  0  0  0  0
   24.9700  -23.6550  -15.3120 C   0  0  0  0  0  3  0  0  0  0  0  0
   21.9090  -23.9990  -12.8500 C   0  0  0  0  0  3  0  0  0  0  0  0
   21.4660  -22.7890  -12.0100 C   0  0  0  0  0  2  0  0  0  0  0  0
   22.7350  -21.9890  -11.8070 C   0  0  0  0  0  3  0  0  0  0  0  0
   23.5820  -22.2690  -13.0500 C   0  0  0  0  0  2  0  0  0  0  0  0
   23.0920  -23.5360  -13.6070 N   0  0  0  0  0  0  0  0  0  0  0  0
   23.7190  -24.2450  -14.5790 C   0  0  0  0  0  0  0  0  0  0  0  0
   23.3640  -25.3970  -14.8690 O   0  0  0  0  0  0  0  0  0  0  0  0
   19.9350  -25.4060  -13.1240 N   0  0  0  0  0  0  0  0  0  0  0  0
   20.7220  -24.4890  -13.6970 C   0  0  0  0  0  0  0  0  0  0  0  0
   20.4970  -24.0070  -14.8080 O   0  0  0  0  0  0  0  0  0  0  0  0
   20.2020  -25.7590  -12.2150 H   0  0  0  0  0  0  0  0  0  0  0  0
   18.6570  -25.8640  -13.6540 C   0  0  0  0  0  2  0  0  0  0  0  0
   15.3390  -23.2390  -12.6260 C   0  0  0  0  0  0  0  0  0  0  0  0
   16.3850  -23.4540  -11.7030 C   0  0  0  0  0  3  0  0  0  0  0  0
   17.4580  -24.2990  -12.0330 C   0  0  0  0  0  3  0  0  0  0  0  0
   15.3840  -23.8740  -13.8850 C   0  0  0  0  0  3  0  0  0  0  0  0
   16.4600  -24.7190  -14.2150 C   0  0  0  0  0  3  0  0  0  0  0  0
   17.5040  -24.9370  -13.2910 C   0  0  0  0  0  0  0  0  0  0  0  0
   12.2010  -23.7000  -13.2180 C   0  0  0  0  0  1  0  0  0  0  0  0
   12.8780  -22.5610  -12.4810 C   0  0  0  0  0  0  0  0  0  0  0  0
   12.0780  -21.5890  -11.9180 N   0  0  0  0  0  0  0  0  0  0  0  0
   12.7340  -20.6370  -11.0280 C   0  0  0  0  0  2  0  0  0  0  0  0
   14.4960  -20.9280  -11.3420 S   0  0  0  0  0  0  0  0  0  0  0  0
   14.1860  -22.4130  -12.2270 C   0  0  0  0  0  0  0  0  0  0  0  0
   11.0630  -21.6290  -11.9300 H   0  0  0  0  0  0  0  0  0  0  0  0
   23.4300  -22.4490  -10.6600 O   0  0  0  0  0  0  0  0  0  0  0  0
   23.6280  -23.3720  -10.7760 H   0  0  0  0  0  0  0  0  0  0  0  0
   24.6660  -23.0070  -16.7110 C   0  0  1  0  0  0  0  0  0  0  0  0
   25.9610  -22.3600  -17.2500 C   0  0  0  0  0  1  0  0  0  0  0  0
   24.1790  -24.0030  -17.7800 C   0  0  0  0  0  1  0  0  0  0  0  0
   23.5980  -21.9020  -16.6120 C   0  0  0  0  0  1  0  0  0  0  0  0
   22.7570  -27.2520  -18.8970 C   0  0  0  0  0  2  0  0  0  0  0  0
   22.8660  -27.0550  -17.3770 C   0  0  0  0  0  2  0  0  0  0  0  0
   22.2910  -28.7010  -19.1010 C   0  0  0  0  0  2  0  0  0  0  0  0
   22.8630  -28.4500  -16.7640 C   0  0  0  0  0  3  0  0  0  0  0  0
   21.8320  -29.1840  -17.7140 C   0  0  1  0  0  0  0  0  0  0  0  0
   20.3920  -28.6180  -17.5050 C   0  0  0  0  0  1  0  0  0  0  0  0
   20.9900  -31.5190  -17.0530 C   0  0  0  0  0  0  0  0  0  0  0  0
   20.2120  -31.1260  -16.1860 O   0  0  0  0  0  0  0  0  0  0  0  0
   21.8320  -30.6720  -17.7000 N   0  0  0  0  0  0  0  0  0  0  0  0
   22.4880  -31.1130  -18.3290 H   0  0  0  0  0  0  0  0  0  0  0  0
   21.1070  -33.0410  -17.2880 C   0  0  0  0  0  2  0  0  0  0  0  0
   21.5090  -33.7590  -15.9710 C   0  0  0  0  0  3  0  0  0  0  0  0
   22.8440  -33.2870  -15.6120 N   0  0  0  0  0  0  0  0  0  0  0  0
   21.5020  -35.2800  -15.9960 C   0  0  0  0  0  0  0  0  0  0  0  0
   21.3010  -36.0670  -17.0590 N   0  0  0  0  0  0  0  0  0  0  0  0
   21.4890  -37.3610  -16.6080 N   0  0  0  0  0  0  0  0  0  0  0  0
   21.7930  -37.2560  -15.3110 C   0  0  0  0  0  0  0  0  0  0  0  0
   22.1400  -38.4300  -14.4470 C   0  0  0  0  0  1  0  0  0  0  0  0
   21.7840  -35.9770  -14.8740 N   0  0  0  0  0  0  0  0  0  0  0  0
   22.0030  -35.4470  -13.5850 C   0  0  0  0  0  0  0  0  0  0  0  0
   21.4250  -36.1360  -12.1010 S   0  0  0  0  0  0  0  0  0  0  0  0
   22.0430  -34.7900  -11.1830 C   0  0  0  0  0  0  0  0  0  0  0  0
   21.8580  -34.7640   -9.7000 C   0  0  0  0  0  1  0  0  0  0  0  0
   22.6460  -33.8490  -11.9870 C   0  0  0  0  0  0  0  0  0  0  0  0
   23.2010  -32.5550  -11.4450 C   0  0  0  0  0  1  0  0  0  0  0  0
   22.6600  -34.2560  -13.3690 C   0  0  0  0  0  0  0  0  0  0  0  0
   23.3340  -33.4720  -14.4490 C   0  0  0  0  0  0  0  0  0  0  0  0
   24.6650  -32.8950  -14.1870 C   0  0  0  0  0  0  0  0  0  0  0  0
   25.6730  -33.6820  -13.5910 C   0  0  0  0  0  3  0  0  0  0  0  0
   26.9360  -33.1240  -13.3210 C   0  0  0  0  0  3  0  0  0  0  0  0
   27.1910  -31.7780  -13.6360 C   0  0  0  0  0  0  0  0  0  0  0  0
   28.7320  -31.0830  -13.3090 Cl  0  0  0  0  0  0  0  0  0  0  0  0
   26.1800  -30.9910  -14.2090 C   0  0  0  0  0  3  0  0  0  0  0  0
   24.9230  -31.5470  -14.5040 C   0  0  0  0  0  3  0  0  0  0  0  0
  1  3  1  0
  2  5  1  0
  2  1  2  0
  3  7  1  0
  3 12  1  0
  4  1  1  0
  6  2  1  0
  8  4  1  0
  9 15  1  0
  9 10  1  0
 10 11  2  0
 12 10  1  0
 12 14  1  0
 13  9  1  0
 15 21  1  0
 16 24  1  0
 16 17  1  0
 17 18  1  0
 18 41  1  0
 19 18  1  0
 20 19  1  0
 20 16  1  0
 21 20  1  0
 22 21  2  0
 23 26  1  0
 24 23  1  0
 25 24  2  0
 27 33  1  0
 27 23  1  0
 28 39  1  0
 28 29  1  0
 30 29  2  0
 31 28  2  0
 32 31  1  0
 32 33  2  0
 33 30  1  0
 34 35  1  0
 35 39  2  0
 35 36  1  0
 36 37  1  0
 38 37  1  0
 39 38  1  0
 40 36  1  0
 42 41  1  0
 43 46  1  1
 43 15  1  0
 44 43  1  0
 45 43  1  0
 47 48  1  0
 48 50  1  0
 49 47  1  0
 49 51  1  0
 50  4  1  0
 51 55  1  0
 51 52  1  1
 51 50  1  0
 53 54  2  0
 55 53  1  0
 56 55  1  0
 57 53  1  0
 58 57  1  0
 58 59  1  0
 59 73  2  0
 60 58  1  0
 60 65  1  0
 61 62  1  0
 61 60  2  0
 62 63  2  0
 63 65  1  0
 63 64  1  0
 65 66  1  0
 66 72  2  0
 66 67  1  0
 67 68  1  0
 68 69  1  0
 70 71  1  0
 70 68  2  0
 72 70  1  0
 73 74  1  0
 73 72  1  0
 74 75  1  0
 75 76  2  0
 77 76  1  0
 77 78  1  0
 79 77  2  0
 80 79  1  0
 80 74  2  0
M  ISO  4  10 101  12 101  53 100  55 100
M  END
>  <TORSDO>  (36) 
F 14

>  <SCORE>  (36) 
-15.345

>  <name>  (36) 
35

>  <ligand_id>  (36) 
35

>  <original_smiles>  (36) 
[H]OC1([H])C([H])([H])N(C(=O)C([H])(N([H])C(=O)N([H])N([H])C(N([H])[H])=[N+]([H])C2([H])C([H])([H])C([H])([H])C([H])([H])C2(N([H])C(=O)C([H])([H])C2([H])N=C(c3c([H])c([H])c(Cl)c([H])c3[H])c3c(sc(C([H])([H])[H])c3C([H])([H])[H])-n3c(C([H])([H])[H])nnc32)C([H])([H])[H])C(C([H])([H])[H])(C([H])([H])[H])C([H])([H])[H])C([H])(C(=O)N([H])C([H])([H])c2c([H])c([H])c(C3=C(C([H])([H])[H])N([H])C([H])([H])S3)c([H])c2[H])C1([H])[H]

>  <smiles>  (36) 
[H]OC1([H])C([H])([H])N(C(=O)C([H])(N([H])C(=O)N([H])N([H])C(N([H])[H])=[N+]([H])C2([H])C([H])([H])C([H])([H])C([H])([H])C2(N([H])C(=O)C([H])([H])C2([H])N=C(c3c([H])c([H])c(Cl)c([H])c3[H])c3c(sc(C([H])([H])[H])c3C([H])([H])[H])-n3c(C([H])([H])[H])nnc32)C([H])([H])[H])C(C([H])([H])[H])(C([H])([H])[H])C([H])([H])[H])C([H])(C(=O)N([H])C([H])([H])c2c([H])c([H])c(C3=C(C([H])([H])[H])N([H])C([H])([H])S3)c([H])c2[H])C1([H])[H]

$$$$
36:0:0
     RDKit          3D

 82 89  0  0  1  0  0  0  0  0999 V2000
   24.1490  -28.5770  -19.3510 C   0  0  0  0  0  3  0  0  0  0  0  0
   23.8180  -27.3090  -19.8320 C   0  0  0  0  0  3  0  0  0  0  0  0
   24.4970  -26.3590  -17.8380 C   0  0  0  0  0  3  0  0  0  0  0  0
   24.6550  -28.7080  -18.0310 C   0  0  0  0  0  0  0  0  0  0  0  0
   25.0240  -27.5320  -17.3160 C   0  0  0  0  0  0  0  0  0  0  0  0
   23.9070  -26.2260  -19.0500 N   0  0  0  0  0  0  0  0  0  0  0  0
   24.6930  -27.4390  -14.7180 O   0  0  0  0  0  0  0  0  0  0  0  0
   26.7660  -28.6230  -15.6640 O   0  0  0  0  0  0  0  0  0  0  0  0
   25.8210  -27.4950  -15.6610 S   0  0  1  0  0  0  0  0  0  0  0  0
   25.5120  -24.3220  -15.3280 N   0  0  0  0  0  0  0  0  0  0  0  0
   26.4050  -24.9450  -14.5900 C   0  0  0  0  0  0  0  0  0  0  0  0
   26.8650  -24.4980  -13.5220 O   0  0  0  0  0  0  0  0  0  0  0  0
   26.8280  -26.0920  -15.2810 N   0  0  0  0  0  0  0  0  0  0  0  0
   25.3460  -24.7050  -16.2400 H   0  0  0  0  0  0  0  0  0  0  0  0
   27.7290  -26.4680  -14.9920 H   0  0  0  0  0  0  0  0  0  0  0  0
   24.6510  -23.2080  -15.0290 C   0  0  0  0  0  3  0  0  0  0  0  0
   21.5620  -23.4260  -12.6090 C   0  0  0  0  0  3  0  0  0  0  0  0
   21.0920  -22.1610  -11.8730 C   0  0  0  0  0  2  0  0  0  0  0  0
   22.3480  -21.3310  -11.7090 C   0  0  0  0  0  3  0  0  0  0  0  0
   23.2200  -21.6940  -12.9090 C   0  0  0  0  0  2  0  0  0  0  0  0
   22.7510  -23.0030  -13.3750 N   0  0  0  0  0  0  0  0  0  0  0  0
   23.4010  -23.7710  -14.2820 C   0  0  0  0  0  0  0  0  0  0  0  0
   23.0550  -24.9390  -14.4930 O   0  0  0  0  0  0  0  0  0  0  0  0
   19.6320  -24.9040  -12.8210 N   0  0  0  0  0  0  0  0  0  0  0  0
   20.4000  -23.9980  -13.4370 C   0  0  0  0  0  0  0  0  0  0  0  0
   20.1740  -23.5870  -14.5780 O   0  0  0  0  0  0  0  0  0  0  0  0
   19.8980  -25.1960  -11.8910 H   0  0  0  0  0  0  0  0  0  0  0  0
   18.3730  -25.4250  -13.3370 C   0  0  0  0  0  2  0  0  0  0  0  0
   14.9630  -22.8940  -12.3860 C   0  0  0  0  0  0  0  0  0  0  0  0
   16.0160  -23.0420  -11.4600 C   0  0  0  0  0  3  0  0  0  0  0  0
   17.1200  -23.8560  -11.7650 C   0  0  0  0  0  3  0  0  0  0  0  0
   15.0290  -23.5660  -13.6240 C   0  0  0  0  0  3  0  0  0  0  0  0
   16.1360  -24.3810  -13.9300 C   0  0  0  0  0  3  0  0  0  0  0  0
   17.1870  -24.5310  -13.0020 C   0  0  0  0  0  0  0  0  0  0  0  0
   11.8430  -23.4890  -12.9590 C   0  0  0  0  0  1  0  0  0  0  0  0
   12.4780  -22.3040  -12.2590 C   0  0  0  0  0  0  0  0  0  0  0  0
   11.6420  -21.3450  -11.7240 N   0  0  0  0  0  0  0  0  0  0  0  0
   12.2630  -20.3450  -10.8630 C   0  0  0  0  0  2  0  0  0  0  0  0
   14.0340  -20.5790  -11.1710 S   0  0  0  0  0  0  0  0  0  0  0  0
   13.7800  -22.1000  -12.0120 C   0  0  0  0  0  0  0  0  0  0  0  0
   10.6290  -21.4240  -11.7330 H   0  0  0  0  0  0  0  0  0  0  0  0
   23.0290  -21.6950  -10.5200 O   0  0  0  0  0  0  0  0  0  0  0  0
   23.2430  -22.6230  -10.5650 H   0  0  0  0  0  0  0  0  0  0  0  0
   24.3570  -22.5270  -16.4220 C   0  0  1  0  0  0  0  0  0  0  0  0
   25.6800  -21.9490  -16.9780 C   0  0  0  0  0  1  0  0  0  0  0  0
   23.8030  -23.4290  -17.5270 C   0  0  0  0  0  1  0  0  0  0  0  0
   23.3470  -21.3800  -16.2940 C   0  0  0  0  0  1  0  0  0  0  0  0
   24.5540  -30.0770  -17.3820 C   0  0  0  0  0  2  0  0  0  0  0  0
   20.2850  -31.1960  -16.2480 C   0  0  0  0  0  0  0  0  0  0  0  0
   19.6960  -30.5770  -15.3500 O   0  0  0  0  0  0  0  0  0  0  0  0
   22.2380  -31.1530  -17.8950 C   0  0  0  0  0  0  0  0  0  0  0  0
   21.6890  -31.8700  -18.8870 N   0  0  0  0  0  4  0  0  0  0  0  0
   21.5050  -30.6470  -16.8520 N   0  0  0  0  0  0  0  0  0  0  0  0
   23.5690  -30.9450  -18.0710 N   0  0  0  0  0  0  0  0  0  0  0  0
   20.6890  -31.9800  -18.9750 H   0  0  0  0  0  0  0  0  0  0  0  0
   22.2360  -32.2670  -19.6370 H   0  0  0  0  0  0  0  0  0  0  0  0
   21.8740  -29.7840  -16.4920 H   0  0  0  0  0  0  0  0  0  0  0  0
   24.0030  -31.4210  -18.8470 H   0  0  0  0  0  0  0  0  0  0  0  0
   20.0580  -32.7010  -16.4290 C   0  0  0  0  0  2  0  0  0  0  0  0
   20.7620  -33.4910  -15.2980 C   0  0  0  0  0  3  0  0  0  0  0  0
   22.1380  -33.0140  -15.1050 N   0  0  0  0  0  0  0  0  0  0  0  0
   20.7750  -34.9900  -15.5120 C   0  0  0  0  0  0  0  0  0  0  0  0
   20.4500  -35.6440  -16.6320 N   0  0  0  0  0  0  0  0  0  0  0  0
   20.7200  -36.9750  -16.3790 N   0  0  0  0  0  0  0  0  0  0  0  0
   21.2020  -37.0170  -15.1330 C   0  0  0  0  0  0  0  0  0  0  0  0
   21.6840  -38.2750  -14.4770 C   0  0  0  0  0  1  0  0  0  0  0  0
   21.2340  -35.8030  -14.5410 N   0  0  0  0  0  0  0  0  0  0  0  0
   21.6310  -35.4170  -13.2450 C   0  0  0  0  0  0  0  0  0  0  0  0
   21.2760  -36.2850  -11.7870 S   0  0  0  0  0  0  0  0  0  0  0  0
   22.0030  -35.0360  -10.8150 C   0  0  0  0  0  0  0  0  0  0  0  0
   22.0280  -35.1840   -9.3280 C   0  0  0  0  0  1  0  0  0  0  0  0
   22.4770  -33.9920  -11.5800 C   0  0  0  0  0  0  0  0  0  0  0  0
   23.0900  -32.7540  -10.9730 C   0  0  0  0  0  1  0  0  0  0  0  0
   22.2980  -34.2390  -12.9860 C   0  0  0  0  0  0  0  0  0  0  0  0
   22.8000  -33.3220  -14.0560 C   0  0  0  0  0  0  0  0  0  0  0  0
   24.1540  -32.7620  -13.9100 C   0  0  0  0  0  0  0  0  0  0  0  0
   25.2470  -33.6160  -13.6430 C   0  0  0  0  0  3  0  0  0  0  0  0
   26.5440  -33.0900  -13.4760 C   0  0  0  0  0  3  0  0  0  0  0  0
   26.7420  -31.7050  -13.5400 C   0  0  0  0  0  0  0  0  0  0  0  0
   28.3040  -30.9970  -13.3470 Cl  0  0  0  0  0  0  0  0  0  0  0  0
   25.6400  -30.8750  -13.7190 C   0  0  0  0  0  3  0  0  0  0  0  0
   24.3490  -31.3720  -13.9560 C   0  0  0  0  0  3  0  0  0  0  0  0
  1  4  1  0
  2  1  2  0
  2  6  1  0
  3  5  1  0
  4 48  1  0
  4  5  2  0
  5  9  1  0
  6  3  2  0
  8  9  2  0
  9 13  1  6
  9  7  2  0
 10 16  1  0
 10 11  1  0
 11 12  2  0
 13 15  1  0
 13 11  1  0
 14 10  1  0
 16 22  1  0
 17 25  1  0
 17 18  1  0
 18 19  1  0
 19 42  1  0
 20 19  1  0
 21 20  1  0
 21 17  1  0
 22 21  1  0
 23 22  2  0
 24 27  1  0
 25 24  1  0
 26 25  2  0
 28 34  1  0
 28 24  1  0
 29 40  1  0
 29 30  1  0
 31 30  2  0
 32 29  2  0
 33 32  1  0
 33 34  2  0
 34 31  1  0
 35 36  1  0
 36 40  2  0
 36 37  1  0
 37 38  1  0
 39 38  1  0
 40 39  1  0
 41 37  1  0
 43 42  1  0
 44 47  1  1
 44 16  1  0
 45 44  1  0
 46 44  1  0
 49 50  2  0
 51 53  1  0
 52 51  2  0
 53 57  1  0
 53 49  1  0
 54 51  1  0
 54 48  1  0
 55 52  1  0
 56 52  1  0
 58 54  1  0
 59 49  1  0
 60 59  1  0
 60 61  1  0
 61 75  2  0
 62 60  1  0
 62 67  1  0
 63 64  1  0
 63 62  2  0
 64 65  2  0
 65 67  1  0
 65 66  1  0
 67 68  1  0
 68 74  2  0
 68 69  1  0
 69 70  1  0
 70 71  1  0
 72 73  1  0
 72 70  2  0
 74 72  1  0
 75 76  1  0
 75 74  1  0
 76 77  1  0
 77 78  2  0
 79 78  1  0
 79 80  1  0
 81 79  2  0
 82 76  2  0
 82 81  1  0
M  ISO  4  11 101  13 101  49 100  53 100
M  END
>  <TORSDO>  (37) 
F 15

>  <SCORE>  (37) 
-6.008

>  <name>  (37) 
36

>  <ligand_id>  (37) 
36

>  <original_smiles>  (37) 
[H]OC1([H])C([H])([H])N(C(=O)C([H])(N([H])C(=O)N([H])S(=O)(=O)c2c([H])nc([H])c([H])c2C([H])([H])[N+]([H])=C(N([H])[H])N([H])C(=O)C([H])([H])C2([H])N=C(c3c([H])c([H])c(Cl)c([H])c3[H])c3c(sc(C([H])([H])[H])c3C([H])([H])[H])-n3c(C([H])([H])[H])nnc32)C(C([H])([H])[H])(C([H])([H])[H])C([H])([H])[H])C([H])(C(=O)N([H])C([H])([H])c2c([H])c([H])c(C3=C(C([H])([H])[H])N([H])C([H])([H])S3)c([H])c2[H])C1([H])[H]

>  <smiles>  (37) 
[H]OC1([H])C([H])([H])N(C(=O)C([H])(N([H])C(=O)N([H])S(=O)(=O)c2c([H])nc([H])c([H])c2C([H])([H])[N+]([H])=C(N([H])[H])N([H])C(=O)C([H])([H])C2([H])N=C(c3c([H])c([H])c(Cl)c([H])c3[H])c3c(sc(C([H])([H])[H])c3C([H])([H])[H])-n3c(C([H])([H])[H])nnc32)C(C([H])([H])[H])(C([H])([H])[H])C([H])([H])[H])C([H])(C(=O)N([H])C([H])([H])c2c([H])c([H])c(C3=C(C([H])([H])[H])N([H])C([H])([H])S3)c([H])c2[H])C1([H])[H]

$$$$
37:0:0
     RDKit          3D

 80 88  0  0  1  0  0  0  0  0999 V2000
   24.5190  -28.0710  -14.1090 C   0  0  0  0  0  2  0  0  0  0  0  0
   25.8150  -28.7750  -14.4740 C   0  0  0  0  0  2  0  0  0  0  0  0
   23.5620  -28.0090  -15.3020 C   0  0  0  0  0  2  0  0  0  0  0  0
   26.5550  -28.0240  -15.5950 C   0  0  0  0  0  2  0  0  0  0  0  0
   24.1200  -27.4280  -16.6360 C   0  0  0  0  0  3  0  0  0  0  0  0
   25.7130  -27.4640  -16.7970 C   0  0  0  0  0  3  0  0  0  0  0  0
   25.0380  -24.4050  -17.1480 N   0  0  0  0  0  0  0  0  0  0  0  0
   26.0780  -25.0160  -16.6090 C   0  0  0  0  0  0  0  0  0  0  0  0
   26.7250  -24.5900  -15.6490 O   0  0  0  0  0  0  0  0  0  0  0  0
   26.2670  -26.1740  -17.2410 N   0  0  0  0  0  0  0  0  0  0  0  0
   24.6070  -24.8610  -17.9340 H   0  0  0  0  0  0  0  0  0  0  0  0
   26.2080  -26.0920  -18.2460 H   0  0  0  0  0  0  0  0  0  0  0  0
   24.2170  -23.3430  -16.5950 C   0  0  0  0  0  3  0  0  0  0  0  0
   21.8360  -23.6680  -13.4670 C   0  0  0  0  0  3  0  0  0  0  0  0
   21.4760  -22.4170  -12.6580 C   0  0  0  0  0  2  0  0  0  0  0  0
   22.6760  -21.5070  -12.8230 C   0  0  0  0  0  3  0  0  0  0  0  0
   23.2380  -21.8280  -14.2020 C   0  0  0  0  0  2  0  0  0  0  0  0
   22.7680  -23.1760  -14.5080 N   0  0  0  0  0  0  0  0  0  0  0  0
   23.2350  -23.9240  -15.5250 C   0  0  0  0  0  0  0  0  0  0  0  0
   22.8930  -25.0910  -15.5940 O   0  0  0  0  0  0  0  0  0  0  0  0
   19.9460  -25.1880  -13.1060 N   0  0  0  0  0  0  0  0  0  0  0  0
   20.5420  -24.3460  -13.9630 C   0  0  0  0  0  0  0  0  0  0  0  0
   20.0670  -24.0690  -15.0650 O   0  0  0  0  0  0  0  0  0  0  0  0
   20.4140  -25.3900  -12.2340 H   0  0  0  0  0  0  0  0  0  0  0  0
   18.6210  -25.7710  -13.2860 C   0  0  0  0  0  2  0  0  0  0  0  0
   15.3950  -22.9710  -12.4330 C   0  0  0  0  0  0  0  0  0  0  0  0
   16.5370  -23.0080  -11.6090 C   0  0  0  0  0  3  0  0  0  0  0  0
   17.5810  -23.9110  -11.8820 C   0  0  0  0  0  3  0  0  0  0  0  0
   15.3070  -23.8450  -13.5370 C   0  0  0  0  0  3  0  0  0  0  0  0
   16.3530  -24.7460  -13.8120 C   0  0  0  0  0  3  0  0  0  0  0  0
   17.4970  -24.7860  -12.9880 C   0  0  0  0  0  0  0  0  0  0  0  0
   12.2150  -23.4310  -12.7690 C   0  0  0  0  0  1  0  0  0  0  0  0
   12.9570  -22.2220  -12.2320 C   0  0  0  0  0  0  0  0  0  0  0  0
   12.2110  -21.1670  -11.7500 N   0  0  0  0  0  0  0  0  0  0  0  0
   12.9370  -20.1240  -11.0340 C   0  0  0  0  0  2  0  0  0  0  0  0
   14.6700  -20.4960  -11.4110 S   0  0  0  0  0  0  0  0  0  0  0  0
   14.2810  -22.0730  -12.0800 C   0  0  0  0  0  0  0  0  0  0  0  0
   11.1960  -21.1860  -11.6950 H   0  0  0  0  0  0  0  0  0  0  0  0
   23.6610  -21.8140  -11.8480 O   0  0  0  0  0  0  0  0  0  0  0  0
   23.9170  -22.7230  -11.9550 H   0  0  0  0  0  0  0  0  0  0  0  0
   23.4950  -22.7020  -17.8310 C   0  0  1  0  0  0  0  0  0  0  0  0
   24.5610  -22.0700  -18.7580 C   0  0  0  0  0  1  0  0  0  0  0  0
   22.6750  -23.7130  -18.6680 C   0  0  0  0  0  1  0  0  0  0  0  0
   22.5460  -21.5730  -17.3910 C   0  0  0  0  0  1  0  0  0  0  0  0
   23.4150  -28.5050  -18.9660 C   0  0  0  0  0  2  0  0  0  0  0  0
   23.2060  -27.7920  -17.8090 C   0  0  0  0  0  3  0  0  0  0  0  0
   22.0980  -28.8200  -19.4150 C   0  0  0  0  0  3  0  0  0  0  0  0
   20.8940  -27.0110  -16.8420 C   0  0  0  0  0  1  0  0  0  0  0  0
   21.2130  -28.0080  -18.9010 N   0  0  0  0  0  2  0  0  0  0  0  0
   21.8260  -27.5330  -17.8160 N   0  0  0  0  0  0  0  0  0  0  0  0
   21.5860  -29.9490  -20.2640 C   0  0  0  0  0  2  0  0  0  0  0  0
   20.6350  -30.9420  -19.5090 C   0  0  0  0  0  2  0  0  0  0  0  0
   20.6120  -31.6890  -17.0220 C   0  0  0  0  0  0  0  0  0  0  0  0
   20.4760  -31.3400  -15.8440 O   0  0  0  0  0  0  0  0  0  0  0  0
   20.5420  -30.7970  -18.0330 N   0  0  0  0  0  0  0  0  0  0  0  0
   20.4310  -29.8330  -17.7490 H   0  0  0  0  0  0  0  0  0  0  0  0
   21.0350  -33.1280  -17.3290 C   0  0  0  0  0  2  0  0  0  0  0  0
   21.5010  -33.8700  -16.0530 C   0  0  0  0  0  3  0  0  0  0  0  0
   22.8290  -33.4000  -15.6500 N   0  0  0  0  0  0  0  0  0  0  0  0
   21.5350  -35.3760  -16.2120 C   0  0  0  0  0  0  0  0  0  0  0  0
   21.3930  -36.0630  -17.3500 N   0  0  0  0  0  0  0  0  0  0  0  0
   21.6070  -37.3860  -17.0150 N   0  0  0  0  0  0  0  0  0  0  0  0
   21.8730  -37.3910  -15.7050 C   0  0  0  0  0  0  0  0  0  0  0  0
   22.2260  -38.6290  -14.9390 C   0  0  0  0  0  1  0  0  0  0  0  0
   21.8180  -36.1600  -15.1520 N   0  0  0  0  0  0  0  0  0  0  0  0
   22.0010  -35.7380  -13.8240 C   0  0  0  0  0  0  0  0  0  0  0  0
   21.4030  -36.5540  -12.4160 S   0  0  0  0  0  0  0  0  0  0  0  0
   21.9770  -35.2780  -11.3770 C   0  0  0  0  0  0  0  0  0  0  0  0
   21.7600  -35.3850   -9.9010 C   0  0  0  0  0  1  0  0  0  0  0  0
   22.5790  -34.2630  -12.0890 C   0  0  0  0  0  0  0  0  0  0  0  0
   23.0950  -33.0070  -11.4340 C   0  0  0  0  0  1  0  0  0  0  0  0
   22.6300  -34.5570  -13.4980 C   0  0  0  0  0  0  0  0  0  0  0  0
   23.3160  -33.6840  -14.5020 C   0  0  0  0  0  0  0  0  0  0  0  0
   24.6480  -33.1470  -14.1650 C   0  0  0  0  0  0  0  0  0  0  0  0
   25.4870  -33.7960  -13.2310 C   0  0  0  0  0  3  0  0  0  0  0  0
   26.7390  -33.2500  -12.8880 C   0  0  0  0  0  3  0  0  0  0  0  0
   27.1700  -32.0620  -13.4930 C   0  0  0  0  0  0  0  0  0  0  0  0
   28.6950  -31.3680  -13.0870 Cl  0  0  0  0  0  0  0  0  0  0  0  0
   26.3550  -31.4660  -14.4590 C   0  0  0  0  0  3  0  0  0  0  0  0
   25.0990  -31.9840  -14.7950 C   0  0  0  0  0  3  0  0  0  0  0  0
  2  1  1  0
  3  1  1  0
  4  2  1  0
  5  3  1  0
  6 10  1  0
  6  5  1  0
  6  4  1  0
  7  8  1  0
  7 13  1  0
  8  9  2  0
 10  8  1  0
 11  7  1  0
 12 10  1  0
 13 19  1  0
 14 22  1  0
 14 15  1  0
 16 15  1  0
 16 39  1  0
 17 16  1  0
 18 17  1  0
 18 14  1  0
 19 18  1  0
 20 19  2  0
 21 24  1  0
 22 21  1  0
 23 22  2  0
 25 21  1  0
 25 31  1  0
 26 37  1  0
 26 27  1  0
 28 27  2  0
 29 26  2  0
 30 29  1  0
 30 31  2  0
 31 28  1  0
 32 33  1  0
 33 37  2  0
 33 34  1  0
 34 38  1  0
 34 35  1  0
 36 35  1  0
 37 36  1  0
 40 39  1  0
 41 44  1  1
 41 13  1  0
 42 41  1  0
 43 41  1  0
 46 45  1  0
 46  5  1  0
 47 51  1  0
 47 45  1  0
 47 49  1  0
 49 50  1  0
 50 46  1  0
 50 48  1  0
 51 52  1  0
 52 55  1  0
 53 54  2  0
 55 56  1  0
 55 53  1  0
 57 53  1  0
 58 57  1  0
 58 59  1  0
 59 73  2  0
 60 58  1  0
 60 65  1  0
 61 62  1  0
 61 60  2  0
 62 63  2  0
 63 65  1  0
 63 64  1  0
 65 66  1  0
 66 72  2  0
 66 67  1  0
 67 68  1  0
 68 69  1  0
 70 71  1  0
 70 68  2  0
 72 70  1  0
 73 74  1  0
 73 72  1  0
 74 75  1  0
 75 76  2  0
 77 78  1  0
 77 76  1  0
 79 77  2  0
 80 79  1  0
 80 74  2  0
M  ISO  4   8 101  10 101  53 100  55 100
M  END
>  <TORSDO>  (38) 
F 16

>  <SCORE>  (38) 
-7.728

>  <name>  (38) 
37

>  <ligand_id>  (38) 
37

>  <original_smiles>  (38) 
[H]OC1([H])C([H])([H])N(C(=O)C([H])(N([H])C(=O)N([H])C2([H])C([H])([H])C([H])([H])C([H])([H])C([H])([H])C2([H])c2c([H])c(C([H])([H])C([H])([H])N([H])C(=O)C([H])([H])C3([H])N=C(c4c([H])c([H])c(Cl)c([H])c4[H])c4c(sc(C([H])([H])[H])c4C([H])([H])[H])-n4c(C([H])([H])[H])nnc43)nn2C([H])([H])[H])C(C([H])([H])[H])(C([H])([H])[H])C([H])([H])[H])C([H])(C(=O)N([H])C([H])([H])c2c([H])c([H])c(C3=C(C([H])([H])[H])N([H])C([H])([H])S3)c([H])c2[H])C1([H])[H]

>  <smiles>  (38) 
[H]OC1([H])C([H])([H])N(C(=O)C([H])(N([H])C(=O)N([H])C2([H])C([H])([H])C([H])([H])C([H])([H])C([H])([H])C2([H])c2c([H])c(C([H])([H])C([H])([H])N([H])C(=O)C([H])([H])C3([H])N=C(c4c([H])c([H])c(Cl)c([H])c4[H])c4c(sc(C([H])([H])[H])c4C([H])([H])[H])-n4c(C([H])([H])[H])nnc43)nn2C([H])([H])[H])C(C([H])([H])[H])(C([H])([H])[H])C([H])([H])[H])C([H])(C(=O)N([H])C([H])([H])c2c([H])c([H])c(C3=C(C([H])([H])[H])N([H])C([H])([H])S3)c([H])c2[H])C1([H])[H]

$$$$
38:0:0
     RDKit          3D

 80 88  0  0  1  0  0  0  0  0999 V2000
   26.2710  -27.4870  -16.6920 C   0  0  0  0  0  3  0  0  0  0  0  0
   23.6810  -29.3150  -18.4410 C   0  0  0  0  0  2  0  0  0  0  0  0
   22.5280  -28.4940  -16.3450 C   0  0  0  0  0  2  0  0  0  0  0  0
   24.5110  -28.0280  -18.4040 C   0  0  0  0  0  2  0  0  0  0  0  0
   23.7350  -27.4930  -16.1580 C   0  0  0  0  0  2  0  0  0  0  0  0
   22.3170  -29.1420  -17.7510 C   0  0  0  0  0  3  0  0  0  0  0  0
   24.9340  -27.7070  -17.0160 N   0  0  0  0  0  0  0  0  0  0  0  0
   26.8170  -26.9630  -15.5450 N   0  0  0  0  0  0  0  0  0  0  0  0
   27.8320  -26.9210  -15.5230 H   0  0  0  0  0  0  0  0  0  0  0  0
   25.5970  -24.4490  -15.3050 N   0  0  0  0  0  0  0  0  0  0  0  0
   26.3750  -25.0190  -14.3980 C   0  0  0  0  0  0  0  0  0  0  0  0
   26.9660  -24.4000  -13.5040 O   0  0  0  0  0  0  0  0  0  0  0  0
   26.1920  -26.3560  -14.4450 N   0  0  0  0  0  0  0  0  0  0  0  0
   25.2810  -25.0380  -16.0570 H   0  0  0  0  0  0  0  0  0  0  0  0
   25.2380  -26.6660  -14.5490 H   0  0  0  0  0  0  0  0  0  0  0  0
   24.6630  -23.3620  -15.0600 C   0  0  0  0  0  3  0  0  0  0  0  0
   21.5730  -23.7640  -12.6450 C   0  0  0  0  0  3  0  0  0  0  0  0
   21.0690  -22.5530  -11.8440 C   0  0  0  0  0  2  0  0  0  0  0  0
   22.3040  -21.7000  -11.6380 C   0  0  0  0  0  3  0  0  0  0  0  0
   23.1810  -21.9720  -12.8610 C   0  0  0  0  0  2  0  0  0  0  0  0
   22.7480  -23.2680  -13.3900 N   0  0  0  0  0  0  0  0  0  0  0  0
   23.4230  -23.9740  -14.3300 C   0  0  0  0  0  0  0  0  0  0  0  0
   23.1100  -25.1380  -14.5920 O   0  0  0  0  0  0  0  0  0  0  0  0
   19.6560  -25.2510  -12.9170 N   0  0  0  0  0  0  0  0  0  0  0  0
   20.4230  -24.3240  -13.5000 C   0  0  0  0  0  0  0  0  0  0  0  0
   20.2030  -23.8800  -14.6290 O   0  0  0  0  0  0  0  0  0  0  0  0
   19.9170  -25.5690  -11.9930 H   0  0  0  0  0  0  0  0  0  0  0  0
   18.4080  -25.7700  -13.4600 C   0  0  0  0  0  2  0  0  0  0  0  0
   14.9780  -23.2390  -12.5690 C   0  0  0  0  0  0  0  0  0  0  0  0
   16.0060  -23.3990  -11.6180 C   0  0  0  0  0  3  0  0  0  0  0  0
   17.1160  -24.2130  -11.9030 C   0  0  0  0  0  3  0  0  0  0  0  0
   15.0750  -23.8990  -13.8140 C   0  0  0  0  0  3  0  0  0  0  0  0
   16.1880  -24.7140  -14.0980 C   0  0  0  0  0  3  0  0  0  0  0  0
   17.2150  -24.8770  -13.1450 C   0  0  0  0  0  0  0  0  0  0  0  0
   11.8750  -23.7950  -13.2590 C   0  0  0  0  0  1  0  0  0  0  0  0
   12.4950  -22.6310  -12.5130 C   0  0  0  0  0  0  0  0  0  0  0  0
   11.6480  -21.6790  -11.9850 N   0  0  0  0  0  0  0  0  0  0  0  0
   12.2480  -20.6990  -11.0850 C   0  0  0  0  0  2  0  0  0  0  0  0
   14.0270  -20.9420  -11.3350 S   0  0  0  0  0  0  0  0  0  0  0  0
   13.7890  -22.4440  -12.2190 C   0  0  0  0  0  0  0  0  0  0  0  0
   10.6360  -21.7530  -12.0250 H   0  0  0  0  0  0  0  0  0  0  0  0
   22.9970  -22.1110  -10.4700 O   0  0  0  0  0  0  0  0  0  0  0  0
   23.2300  -23.0300  -10.5650 H   0  0  0  0  0  0  0  0  0  0  0  0
   24.3360  -22.7470  -16.4650 C   0  0  1  0  0  0  0  0  0  0  0  0
   25.6110  -22.0640  -17.0130 C   0  0  0  0  0  1  0  0  0  0  0  0
   23.8710  -23.7990  -17.5060 C   0  0  0  0  0  1  0  0  0  0  0  0
   23.2440  -21.6630  -16.3640 C   0  0  0  0  0  1  0  0  0  0  0  0
   29.2110  -26.1690  -17.5390 C   0  0  0  0  0  2  0  0  0  0  0  0
   28.0990  -25.5610  -18.4050 C   0  0  0  0  0  2  0  0  0  0  0  0
   28.7910  -27.6230  -17.2500 C   0  0  0  0  0  2  0  0  0  0  0  0
   27.2490  -26.7460  -18.8750 C   0  0  0  0  0  2  0  0  0  0  0  0
   27.3380  -27.7900  -17.7490 C   0  0  0  0  0  3  0  0  0  0  0  0
   20.7340  -31.1040  -17.0580 C   0  0  0  0  0  0  0  0  0  0  0  0
   20.0530  -30.5470  -16.1960 O   0  0  0  0  0  0  0  0  0  0  0  0
   21.6780  -30.4800  -17.7940 N   0  0  0  0  0  0  0  0  0  0  0  0
   22.1160  -31.1010  -18.4610 H   0  0  0  0  0  0  0  0  0  0  0  0
   20.6980  -32.6380  -17.2100 C   0  0  0  0  0  2  0  0  0  0  0  0
   21.3250  -33.3420  -15.9710 C   0  0  0  0  0  3  0  0  0  0  0  0
   22.6810  -32.8300  -15.7570 N   0  0  0  0  0  0  0  0  0  0  0  0
   21.3670  -34.8590  -16.0280 C   0  0  0  0  0  0  0  0  0  0  0  0
   21.0980  -35.6340  -17.0850 N   0  0  0  0  0  0  0  0  0  0  0  0
   21.3700  -36.9280  -16.6810 N   0  0  0  0  0  0  0  0  0  0  0  0
   21.7960  -36.8350  -15.4190 C   0  0  0  0  0  0  0  0  0  0  0  0
   22.2610  -38.0160  -14.6170 C   0  0  0  0  0  1  0  0  0  0  0  0
   21.7890  -35.5650  -14.9580 N   0  0  0  0  0  0  0  0  0  0  0  0
   22.1220  -35.0460  -13.6900 C   0  0  0  0  0  0  0  0  0  0  0  0
   21.7150  -35.7730  -12.1680 S   0  0  0  0  0  0  0  0  0  0  0  0
   22.3780  -34.4220  -11.2920 C   0  0  0  0  0  0  0  0  0  0  0  0
   22.3390  -34.4240   -9.7970 C   0  0  0  0  0  1  0  0  0  0  0  0
   22.8720  -33.4500  -12.1370 C   0  0  0  0  0  0  0  0  0  0  0  0
   23.4390  -32.1470  -11.6280 C   0  0  0  0  0  1  0  0  0  0  0  0
   22.7620  -33.8370  -13.5210 C   0  0  0  0  0  0  0  0  0  0  0  0
   23.3020  -33.0200  -14.6540 C   0  0  0  0  0  0  0  0  0  0  0  0
   24.6460  -32.4140  -14.5160 C   0  0  0  0  0  0  0  0  0  0  0  0
   25.7070  -33.1440  -13.9410 C   0  0  0  0  0  3  0  0  0  0  0  0
   26.9720  -32.5470  -13.7890 C   0  0  0  0  0  3  0  0  0  0  0  0
   27.1810  -31.2160  -14.2000 C   0  0  0  0  0  0  0  0  0  0  0  0
   28.7260  -30.4790  -14.0100 Cl  0  0  0  0  0  0  0  0  0  0  0  0
   26.1290  -30.4860  -14.7760 C   0  0  0  0  0  3  0  0  0  0  0  0
   24.8740  -31.0930  -14.9500 C   0  0  0  0  0  3  0  0  0  0  0  0
  1  8  1  0
  2  4  1  0
  2  6  1  0
  3  5  1  0
  4  7  1  0
  6 55  1  0
  6  3  1  0
  7  1  1  0
  7  5  1  0
  8  9  1  0
  8 13  1  0
 10 16  1  0
 10 11  1  0
 11 12  2  0
 13 11  1  0
 14 10  1  0
 15 13  1  0
 16 22  1  0
 17 25  1  0
 17 18  1  0
 18 19  1  0
 19 42  1  0
 20 19  1  0
 21 20  1  0
 21 17  1  0
 22 21  1  0
 23 22  2  0
 24 27  1  0
 25 24  1  0
 26 25  2  0
 28 34  1  0
 28 24  1  0
 29 40  1  0
 29 30  1  0
 31 30  2  0
 32 29  2  0
 33 32  1  0
 33 34  2  0
 34 31  1  0
 35 36  1  0
 36 40  2  0
 36 37  1  0
 37 38  1  0
 39 38  1  0
 40 39  1  0
 41 37  1  0
 43 42  1  0
 44 47  1  1
 44 16  1  0
 45 44  1  0
 46 44  1  0
 48 50  1  0
 49 48  1  0
 51 49  1  0
 51 52  1  0
 52 50  1  0
 52  1  1  0
 53 54  2  0
 55 53  1  0
 56 55  1  0
 57 53  1  0
 58 57  1  0
 58 59  1  0
 59 73  2  0
 60 58  1  0
 60 65  1  0
 61 62  1  0
 61 60  2  0
 62 63  2  0
 63 65  1  0
 63 64  1  0
 65 66  1  0
 66 72  2  0
 66 67  1  0
 67 68  1  0
 68 69  1  0
 70 71  1  0
 70 68  2  0
 72 70  1  0
 73 74  1  0
 73 72  1  0
 74 75  1  0
 75 76  2  0
 77 78  1  0
 77 76  1  0
 79 77  2  0
 80 79  1  0
 80 74  2  0
M  ISO  4  11 101  13 101  53 100  55 100
M  END
>  <TORSDO>  (39) 
F 14

>  <SCORE>  (39) 
-12.595

>  <name>  (39) 
38

>  <ligand_id>  (39) 
38

>  <original_smiles>  (39) 
[H]OC1([H])C([H])([H])N(C(=O)C([H])(N([H])C(=O)N([H])[N+]([H])=C(N2C([H])([H])C([H])([H])C([H])(N([H])C(=O)C([H])([H])C3([H])N=C(c4c([H])c([H])c(Cl)c([H])c4[H])c4c(sc(C([H])([H])[H])c4C([H])([H])[H])-n4c(C([H])([H])[H])nnc43)C([H])([H])C2([H])[H])C2([H])C([H])([H])C([H])([H])C([H])([H])C2([H])[H])C(C([H])([H])[H])(C([H])([H])[H])C([H])([H])[H])C([H])(C(=O)N([H])C([H])([H])c2c([H])c([H])c(C3=C(C([H])([H])[H])N([H])C([H])([H])S3)c([H])c2[H])C1([H])[H]

>  <smiles>  (39) 
[H]OC1([H])C([H])([H])N(C(=O)C([H])(N([H])C(=O)N([H])[N+]([H])=C(N2C([H])([H])C([H])([H])C([H])(N([H])C(=O)C([H])([H])C3([H])N=C(c4c([H])c([H])c(Cl)c([H])c4[H])c4c(sc(C([H])([H])[H])c4C([H])([H])[H])-n4c(C([H])([H])[H])nnc43)C([H])([H])C2([H])[H])C2([H])C([H])([H])C([H])([H])C([H])([H])C2([H])[H])C(C([H])([H])[H])(C([H])([H])[H])C([H])([H])[H])C([H])(C(=O)N([H])C([H])([H])c2c([H])c([H])c(C3=C(C([H])([H])[H])N([H])C([H])([H])S3)c([H])c2[H])C1([H])[H]

$$$$
39:0:0
     RDKit          3D

 78 85  0  0  1  0  0  0  0  0999 V2000
   24.3230  -27.0420  -16.1950 C   0  0  0  0  0  2  0  0  0  0  0  0
   26.3990  -28.3510  -17.0550 C   0  0  0  0  0  2  0  0  0  0  0  0
   25.7260  -27.5910  -15.8750 C   0  0  0  0  0  3  0  0  0  0  0  0
   23.3150  -27.7940  -17.0640 C   0  0  0  0  0  3  0  0  0  0  0  0
   23.7030  -28.0230  -18.5560 C   0  0  0  0  0  3  0  0  0  0  0  0
   25.5170  -29.4560  -17.7750 C   0  0  0  0  0  3  0  0  0  0  0  0
   23.9730  -26.7860  -19.4140 C   0  0  0  0  0  1  0  0  0  0  0  0
   24.7850  -28.9100  -18.8230 O   0  0  0  0  0  0  0  0  0  0  0  0
   22.0710  -27.1150  -17.0360 O   0  0  0  0  0  0  0  0  0  0  0  0
   22.2200  -26.2040  -17.2680 H   0  0  0  0  0  0  0  0  0  0  0  0
   24.7080  -30.2000  -16.9020 O   0  0  0  0  0  0  0  0  0  0  0  0
   23.9030  -31.2620  -17.4640 C   0  0  0  0  0  2  0  0  0  0  0  0
   22.4580  -30.9690  -18.0120 C   0  0  0  0  0  2  0  0  0  0  0  0
   20.3910  -31.1390  -16.4590 C   0  0  0  0  0  0  0  0  0  0  0  0
   19.7220  -30.5770  -15.5880 O   0  0  0  0  0  0  0  0  0  0  0  0
   21.4280  -30.4970  -17.0480 N   0  0  0  0  0  0  0  0  0  0  0  0
   21.5290  -29.5340  -16.7540 H   0  0  0  0  0  0  0  0  0  0  0  0
   20.1540  -32.6350  -16.7140 C   0  0  0  0  0  2  0  0  0  0  0  0
   20.7310  -33.4760  -15.5500 C   0  0  0  0  0  3  0  0  0  0  0  0
   22.1090  -33.0620  -15.2870 N   0  0  0  0  0  0  0  0  0  0  0  0
   20.6900  -34.9730  -15.7790 C   0  0  0  0  0  0  0  0  0  0  0  0
   20.3680  -35.6020  -16.9150 N   0  0  0  0  0  0  0  0  0  0  0  0
   20.5770  -36.9440  -16.6710 N   0  0  0  0  0  0  0  0  0  0  0  0
   21.0190  -37.0200  -15.4110 C   0  0  0  0  0  0  0  0  0  0  0  0
   21.4310  -38.3050  -14.7580 C   0  0  0  0  0  1  0  0  0  0  0  0
   21.0810  -35.8160  -14.8030 N   0  0  0  0  0  0  0  0  0  0  0  0
   21.4520  -35.4630  -13.4880 C   0  0  0  0  0  0  0  0  0  0  0  0
   21.0180  -36.3410  -12.0560 S   0  0  0  0  0  0  0  0  0  0  0  0
   21.7600  -35.1360  -11.0390 C   0  0  0  0  0  0  0  0  0  0  0  0
   21.7330  -35.3100   -9.5550 C   0  0  0  0  0  1  0  0  0  0  0  0
   22.2960  -34.0990  -11.7720 C   0  0  0  0  0  0  0  0  0  0  0  0
   22.9350  -32.8940  -11.1260 C   0  0  0  0  0  1  0  0  0  0  0  0
   22.1520  -34.3150  -13.1880 C   0  0  0  0  0  0  0  0  0  0  0  0
   22.7240  -33.3950  -14.2200 C   0  0  0  0  0  0  0  0  0  0  0  0
   24.0920  -32.8730  -14.0270 C   0  0  0  0  0  0  0  0  0  0  0  0
   25.1370  -33.7640  -13.6980 C   0  0  0  0  0  3  0  0  0  0  0  0
   26.4440  -33.2840  -13.4870 C   0  0  0  0  0  3  0  0  0  0  0  0
   26.7090  -31.9100  -13.5960 C   0  0  0  0  0  0  0  0  0  0  0  0
   28.2940  -31.2830  -13.3470 Cl  0  0  0  0  0  0  0  0  0  0  0  0
   25.6690  -31.0260  -13.8870 C   0  0  0  0  0  3  0  0  0  0  0  0
   24.3600  -31.4900  -14.1230 C   0  0  0  0  0  3  0  0  0  0  0  0
   26.6410  -26.8310  -14.9470 O   0  0  0  0  0  0  0  0  0  0  0  0
   25.7570  -24.7560  -15.2840 N   0  0  0  0  0  0  0  0  0  0  0  0
   26.6060  -25.4640  -14.4950 C   0  0  0  0  0  0  0  0  0  0  0  0
   27.1970  -24.9770  -13.5150 O   0  0  0  0  0  0  0  0  0  0  0  0
   25.4260  -25.2710  -16.0810 H   0  0  0  0  0  0  0  0  0  0  0  0
   24.9400  -23.5970  -14.9550 C   0  0  0  0  0  3  0  0  0  0  0  0
   21.7490  -23.8260  -12.6410 C   0  0  0  0  0  3  0  0  0  0  0  0
   21.3050  -22.6120  -11.8150 C   0  0  0  0  0  2  0  0  0  0  0  0
   22.5920  -21.8610  -11.5390 C   0  0  0  0  0  3  0  0  0  0  0  0
   23.4930  -22.1470  -12.7390 C   0  0  0  0  0  2  0  0  0  0  0  0
   22.9850  -23.3850  -13.3250 N   0  0  0  0  0  0  0  0  0  0  0  0
   23.6240  -24.1020  -14.2730 C   0  0  0  0  0  0  0  0  0  0  0  0
   23.1750  -25.1960  -14.5840 O   0  0  0  0  0  0  0  0  0  0  0  0
   19.7780  -25.2210  -13.0340 N   0  0  0  0  0  0  0  0  0  0  0  0
   20.5900  -24.2890  -13.5460 C   0  0  0  0  0  0  0  0  0  0  0  0
   20.4090  -23.7760  -14.6530 O   0  0  0  0  0  0  0  0  0  0  0  0
   20.0100  -25.6070  -12.1300 H   0  0  0  0  0  0  0  0  0  0  0  0
   18.5200  -25.6550  -13.6280 C   0  0  0  0  0  2  0  0  0  0  0  0
   15.1700  -23.0850  -12.5640 C   0  0  0  0  0  0  0  0  0  0  0  0
   16.1690  -23.3770  -11.6140 C   0  0  0  0  0  3  0  0  0  0  0  0
   17.2530  -24.2040  -11.9540 C   0  0  0  0  0  3  0  0  0  0  0  0
   15.2690  -23.6260  -13.8630 C   0  0  0  0  0  3  0  0  0  0  0  0
   16.3550  -24.4550  -14.2050 C   0  0  0  0  0  3  0  0  0  0  0  0
   17.3520  -24.7500  -13.2530 C   0  0  0  0  0  0  0  0  0  0  0  0
   12.0670  -23.4350  -13.3750 C   0  0  0  0  0  1  0  0  0  0  0  0
   12.7130  -22.3800  -12.5010 C   0  0  0  0  0  0  0  0  0  0  0  0
   11.8920  -21.4500  -11.8970 N   0  0  0  0  0  0  0  0  0  0  0  0
   12.5060  -20.5970  -10.8860 C   0  0  0  0  0  2  0  0  0  0  0  0
   14.2810  -20.8860  -11.1240 S   0  0  0  0  0  0  0  0  0  0  0  0
   14.0060  -22.2780  -12.1590 C   0  0  0  0  0  0  0  0  0  0  0  0
   10.8790  -21.4720  -11.9710 H   0  0  0  0  0  0  0  0  0  0  0  0
   23.2170  -22.3650  -10.3700 O   0  0  0  0  0  0  0  0  0  0  0  0
   23.3960  -23.2910  -10.4970 H   0  0  0  0  0  0  0  0  0  0  0  0
   24.7060  -22.8540  -16.3230 C   0  0  1  0  0  0  0  0  0  0  0  0
   26.0560  -22.2780  -16.8070 C   0  0  0  0  0  1  0  0  0  0  0  0
   24.1770  -23.7460  -17.4610 C   0  0  0  0  0  1  0  0  0  0  0  0
   23.7110  -21.6900  -16.1910 C   0  0  0  0  0  1  0  0  0  0  0  0
  1  3  1  0
  2  3  1  0
  3 42  1  0
  4  9  1  0
  4  1  1  0
  5  7  1  0
  5  4  1  0
  6  2  1  0
  6 11  1  0
  8  5  1  0
  8  6  1  0
 10  9  1  0
 12 11  1  0
 13 12  1  0
 13 16  1  0
 14 15  2  0
 16 17  1  0
 16 14  1  0
 18 14  1  0
 19 18  1  0
 19 20  1  0
 20 34  2  0
 21 19  1  0
 21 26  1  0
 22 23  1  0
 22 21  2  0
 23 24  2  0
 24 26  1  0
 24 25  1  0
 26 27  1  0
 27 33  2  0
 27 28  1  0
 28 29  1  0
 29 30  1  0
 31 32  1  0
 31 29  2  0
 33 31  1  0
 34 35  1  0
 34 33  1  0
 35 36  1  0
 36 37  2  0
 38 37  1  0
 38 39  1  0
 40 38  2  0
 41 35  2  0
 41 40  1  0
 42 44  1  0
 43 47  1  0
 43 44  1  0
 44 45  2  0
 46 43  1  0
 47 53  1  0
 48 56  1  0
 48 49  1  0
 49 50  1  0
 50 73  1  0
 51 50  1  0
 52 51  1  0
 52 48  1  0
 53 52  1  0
 54 53  2  0
 55 58  1  0
 56 55  1  0
 57 56  2  0
 59 65  1  0
 59 55  1  0
 60 71  1  0
 60 61  1  0
 62 61  2  0
 63 60  2  0
 64 63  1  0
 64 65  2  0
 65 62  1  0
 66 67  1  0
 67 71  2  0
 67 68  1  0
 68 69  1  0
 70 69  1  0
 71 70  1  0
 72 68  1  0
 74 73  1  0
 75 78  1  1
 75 47  1  0
 76 75  1  0
 77 75  1  0
M  ISO  4  14 100  16 100  42 101  44 101
M  END
>  <TORSDO>  (40) 
F 18

>  <SCORE>  (40) 
-7.811

>  <name>  (40) 
39

>  <ligand_id>  (40) 
39

>  <original_smiles>  (40) 
[H]OC1([H])C([H])([H])N(C(=O)C([H])(N([H])C(=O)OC2([H])C([H])([H])C([H])(OC([H])([H])C([H])([H])N([H])C(=O)C([H])([H])C3([H])N=C(c4c([H])c([H])c(Cl)c([H])c4[H])c4c(sc(C([H])([H])[H])c4C([H])([H])[H])-n4c(C([H])([H])[H])nnc43)OC([H])(C([H])([H])[H])C([H])(O[H])C2([H])[H])C(C([H])([H])[H])(C([H])([H])[H])C([H])([H])[H])C([H])(C(=O)N([H])C([H])([H])c2c([H])c([H])c(C3=C(C([H])([H])[H])N([H])C([H])([H])S3)c([H])c2[H])C1([H])[H]

>  <smiles>  (40) 
[H]OC1([H])C([H])([H])N(C(=O)C([H])(N([H])C(=O)OC2([H])C([H])([H])C([H])(OC([H])([H])C([H])([H])N([H])C(=O)C([H])([H])C3([H])N=C(c4c([H])c([H])c(Cl)c([H])c4[H])c4c(sc(C([H])([H])[H])c4C([H])([H])[H])-n4c(C([H])([H])[H])nnc43)OC([H])(C([H])([H])[H])C([H])(O[H])C2([H])[H])C(C([H])([H])[H])(C([H])([H])[H])C([H])([H])[H])C([H])(C(=O)N([H])C([H])([H])c2c([H])c([H])c(C3=C(C([H])([H])[H])N([H])C([H])([H])S3)c([H])c2[H])C1([H])[H]

$$$$
40:0:0
     RDKit          3D

 75 82  0  0  1  0  0  0  0  0999 V2000
   25.8840  -24.7080  -15.5970 N   0  0  0  0  0  0  0  0  0  0  0  0
   26.7050  -25.2890  -14.7310 C   0  0  0  0  0  0  0  0  0  0  0  0
   27.3590  -24.6720  -13.8860 O   0  0  0  0  0  0  0  0  0  0  0  0
   26.6750  -26.6270  -14.8510 N   0  0  0  0  0  0  0  0  0  0  0  0
   25.5470  -25.2960  -16.3410 H   0  0  0  0  0  0  0  0  0  0  0  0
   27.4250  -27.1020  -14.3690 H   0  0  0  0  0  0  0  0  0  0  0  0
   25.0020  -23.5810  -15.3070 C   0  0  0  0  0  3  0  0  0  0  0  0
   21.9570  -24.0050  -12.8410 C   0  0  0  0  0  3  0  0  0  0  0  0
   21.5280  -22.8370  -11.9430 C   0  0  0  0  0  2  0  0  0  0  0  0
   22.8050  -22.0530  -11.7130 C   0  0  0  0  0  3  0  0  0  0  0  0
   23.6430  -22.2750  -12.9730 C   0  0  0  0  0  2  0  0  0  0  0  0
   23.1370  -23.5070  -13.5810 N   0  0  0  0  0  0  0  0  0  0  0  0
   23.7330  -24.1580  -14.6040 C   0  0  0  0  0  0  0  0  0  0  0  0
   23.2990  -25.2410  -14.9890 O   0  0  0  0  0  0  0  0  0  0  0  0
   19.9770  -25.4030  -13.1530 N   0  0  0  0  0  0  0  0  0  0  0  0
   20.7610  -24.4650  -13.6960 C   0  0  0  0  0  0  0  0  0  0  0  0
   20.5310  -23.9460  -14.7900 O   0  0  0  0  0  0  0  0  0  0  0  0
   20.2500  -25.7900  -12.2600 H   0  0  0  0  0  0  0  0  0  0  0  0
   18.6950  -25.8370  -13.6930 C   0  0  0  0  0  2  0  0  0  0  0  0
   15.4130  -23.1880  -12.6190 C   0  0  0  0  0  0  0  0  0  0  0  0
   16.4550  -23.4330  -11.7010 C   0  0  0  0  0  3  0  0  0  0  0  0
   17.5180  -24.2860  -12.0460 C   0  0  0  0  0  3  0  0  0  0  0  0
   15.4470  -23.8030  -13.8890 C   0  0  0  0  0  3  0  0  0  0  0  0
   16.5120  -24.6560  -14.2340 C   0  0  0  0  0  3  0  0  0  0  0  0
   17.5530  -24.9030  -13.3150 C   0  0  0  0  0  0  0  0  0  0  0  0
   12.2710  -23.5830  -13.2370 C   0  0  0  0  0  1  0  0  0  0  0  0
   12.9620  -22.4740  -12.4690 C   0  0  0  0  0  0  0  0  0  0  0  0
   12.1740  -21.5040  -11.8840 N   0  0  0  0  0  0  0  0  0  0  0  0
   12.8410  -20.5880  -10.9660 C   0  0  0  0  0  2  0  0  0  0  0  0
   14.6010  -20.8980  -11.2800 S   0  0  0  0  0  0  0  0  0  0  0  0
   14.2710  -22.3550  -12.2060 C   0  0  0  0  0  0  0  0  0  0  0  0
   11.1590  -21.5270  -11.9020 H   0  0  0  0  0  0  0  0  0  0  0  0
   23.5070  -22.5730  -10.5970 O   0  0  0  0  0  0  0  0  0  0  0  0
   23.7050  -23.4900  -10.7640 H   0  0  0  0  0  0  0  0  0  0  0  0
   24.6780  -22.8770  -16.6720 C   0  0  1  0  0  0  0  0  0  0  0  0
   25.9650  -22.1960  -17.1920 C   0  0  0  0  0  1  0  0  0  0  0  0
   24.1760  -23.8500  -17.7690 C   0  0  0  0  0  1  0  0  0  0  0  0
   23.6170  -21.7700  -16.4990 C   0  0  0  0  0  1  0  0  0  0  0  0
   25.4240  -27.4370  -14.9660 C   0  0  0  0  0  2  0  0  0  0  0  0
   24.9710  -27.7250  -16.4280 C   0  0  0  0  0  0  0  0  0  0  0  0
   25.8340  -28.0320  -17.2560 O   0  0  0  0  0  0  0  0  0  0  0  0
   20.7730  -31.3050  -17.2100 C   0  0  0  0  0  0  0  0  0  0  0  0
   20.2420  -30.7770  -16.2290 O   0  0  0  0  0  0  0  0  0  0  0  0
   22.2790  -29.3960  -17.8340 C   0  0  0  0  0  3  0  0  0  0  0  0
   22.4390  -28.6720  -16.5320 C   0  0  0  0  0  2  0  0  0  0  0  0
   23.4840  -27.5670  -16.8930 C   0  0  0  0  0  3  0  0  0  0  0  0
   22.9210  -28.7070  -18.7820 N   0  0  0  0  0  0  0  0  0  0  0  0
   21.6350  -30.5690  -18.0970 N   0  0  0  0  0  0  0  0  0  0  0  0
   23.4630  -27.5220  -18.3280 O   0  0  0  0  0  0  0  0  0  0  0  0
   22.9800  -28.8940  -19.7770 H   0  0  0  0  0  0  0  0  0  0  0  0
   21.9200  -30.9930  -18.9670 H   0  0  0  0  0  0  0  0  0  0  0  0
   20.7780  -32.8290  -17.4290 C   0  0  0  0  0  2  0  0  0  0  0  0
   21.3150  -33.5600  -16.1660 C   0  0  0  0  0  3  0  0  0  0  0  0
   22.6610  -33.0660  -15.8580 N   0  0  0  0  0  0  0  0  0  0  0  0
   21.3420  -35.0770  -16.2600 C   0  0  0  0  0  0  0  0  0  0  0  0
   21.1190  -35.8180  -17.3520 N   0  0  0  0  0  0  0  0  0  0  0  0
   21.3460  -37.1270  -16.9700 N   0  0  0  0  0  0  0  0  0  0  0  0
   21.7020  -37.0740  -15.6820 C   0  0  0  0  0  0  0  0  0  0  0  0
   22.1010  -38.2800  -14.8860 C   0  0  0  0  0  1  0  0  0  0  0  0
   21.6890  -35.8170  -15.1870 N   0  0  0  0  0  0  0  0  0  0  0  0
   21.9580  -35.3380  -13.8890 C   0  0  0  0  0  0  0  0  0  0  0  0
   21.4520  -36.0970  -12.4140 S   0  0  0  0  0  0  0  0  0  0  0  0
   22.0880  -34.7810  -11.4670 C   0  0  0  0  0  0  0  0  0  0  0  0
   21.9650  -34.8200   -9.9770 C   0  0  0  0  0  1  0  0  0  0  0  0
   22.6440  -33.7960  -12.2550 C   0  0  0  0  0  0  0  0  0  0  0  0
   23.2020  -32.5190  -11.6800 C   0  0  0  0  0  1  0  0  0  0  0  0
   22.6050  -34.1440  -13.6530 C   0  0  0  0  0  0  0  0  0  0  0  0
   23.2200  -33.3040  -14.7300 C   0  0  0  0  0  0  0  0  0  0  0  0
   24.5670  -32.7330  -14.5000 C   0  0  0  0  0  0  0  0  0  0  0  0
   25.5630  -33.4990  -13.8550 C   0  0  0  0  0  3  0  0  0  0  0  0
   26.8340  -32.9450  -13.6040 C   0  0  0  0  0  3  0  0  0  0  0  0
   27.1210  -31.6330  -14.0150 C   0  0  0  0  0  0  0  0  0  0  0  0
   28.6620  -30.9260  -13.7120 Cl  0  0  0  0  0  0  0  0  0  0  0  0
   26.1540  -30.8970  -14.7060 C   0  0  0  0  0  3  0  0  0  0  0  0
   24.8730  -31.4290  -14.9360 C   0  0  0  0  0  3  0  0  0  0  0  0
  1  7  1  0
  1  2  1  0
  2  3  2  0
  4  2  1  0
  4  6  1  0
  5  1  1  0
  7 13  1  0
  8 16  1  0
  8  9  1  0
  9 10  1  0
 10 33  1  0
 11 10  1  0
 12 11  1  0
 12  8  1  0
 13 12  1  0
 14 13  2  0
 15 18  1  0
 16 15  1  0
 17 16  2  0
 19 25  1  0
 19 15  1  0
 20 31  1  0
 20 21  1  0
 22 21  2  0
 23 20  2  0
 24 23  1  0
 24 25  2  0
 25 22  1  0
 26 27  1  0
 27 31  2  0
 27 28  1  0
 28 29  1  0
 30 29  1  0
 31 30  1  0
 32 28  1  0
 34 33  1  0
 35 38  1  1
 35  7  1  0
 36 35  1  0
 37 35  1  0
 39  4  1  0
 40 39  1  0
 41 40  2  0
 42 43  2  0
 44 48  1  0
 44 45  1  0
 46 45  1  0
 46 40  1  0
 47 49  1  0
 47 44  1  0
 48 42  1  0
 49 46  1  0
 50 47  1  0
 51 48  1  0
 52 42  1  0
 53 52  1  0
 53 54  1  0
 54 68  2  0
 55 53  1  0
 55 60  1  0
 56 57  1  0
 56 55  2  0
 57 58  2  0
 58 60  1  0
 58 59  1  0
 60 61  1  0
 61 67  2  0
 61 62  1  0
 62 63  1  0
 63 64  1  0
 65 66  1  0
 65 63  2  0
 67 65  1  0
 68 69  1  0
 68 67  1  0
 69 70  1  0
 70 71  2  0
 72 73  1  0
 72 71  1  0
 74 72  2  0
 75 74  1  0
 75 69  2  0
M  ISO  4   2 101   4 101  42 100  48 100
M  END
>  <TORSDO>  (41) 
F 14

>  <SCORE>  (41) 
-14.362

>  <name>  (41) 
40

>  <ligand_id>  (41) 
40

>  <original_smiles>  (41) 
[H]OC1([H])C([H])([H])N(C(=O)C([H])(N([H])C(=O)N([H])C([H])([H])C(=O)C2([H])O[N+]([H])=C(N([H])C(=O)C([H])([H])C3([H])N=C(c4c([H])c([H])c(Cl)c([H])c4[H])c4c(sc(C([H])([H])[H])c4C([H])([H])[H])-n4c(C([H])([H])[H])nnc43)C2([H])[H])C(C([H])([H])[H])(C([H])([H])[H])C([H])([H])[H])C([H])(C(=O)N([H])C([H])([H])c2c([H])c([H])c(C3=C(C([H])([H])[H])N([H])C([H])([H])S3)c([H])c2[H])C1([H])[H]

>  <smiles>  (41) 
[H]OC1([H])C([H])([H])N(C(=O)C([H])(N([H])C(=O)N([H])C([H])([H])C(=O)C2([H])O[N+]([H])=C(N([H])C(=O)C([H])([H])C3([H])N=C(c4c([H])c([H])c(Cl)c([H])c4[H])c4c(sc(C([H])([H])[H])c4C([H])([H])[H])-n4c(C([H])([H])[H])nnc43)C2([H])[H])C(C([H])([H])[H])(C([H])([H])[H])C([H])([H])[H])C([H])(C(=O)N([H])C([H])([H])c2c([H])c([H])c(C3=C(C([H])([H])[H])N([H])C([H])([H])S3)c([H])c2[H])C1([H])[H]

$$$$
41:0:0
     RDKit          3D

 74 81  0  0  1  0  0  0  0  0999 V2000
   25.8620  -24.6920  -15.4290 N   0  0  0  0  0  0  0  0  0  0  0  0
   26.4780  -25.4530  -14.5500 C   0  0  0  0  0  0  0  0  0  0  0  0
   27.0980  -24.9450  -13.5970 O   0  0  0  0  0  0  0  0  0  0  0  0
   26.1900  -26.7760  -14.8320 N   0  0  0  0  0  0  0  0  0  0  0  0
   25.6290  -25.1800  -16.2780 H   0  0  0  0  0  0  0  0  0  0  0  0
   26.5600  -27.4820  -14.2120 H   0  0  0  0  0  0  0  0  0  0  0  0
   24.8880  -23.6440  -15.1840 C   0  0  0  0  0  3  0  0  0  0  0  0
   21.7450  -23.9310  -12.8170 C   0  0  0  0  0  3  0  0  0  0  0  0
   21.2870  -22.7080  -12.0080 C   0  0  0  0  0  2  0  0  0  0  0  0
   22.5580  -21.9210  -11.7680 C   0  0  0  0  0  3  0  0  0  0  0  0
   23.4460  -22.2230  -12.9740 C   0  0  0  0  0  2  0  0  0  0  0  0
   22.9630  -23.4890  -13.5300 N   0  0  0  0  0  0  0  0  0  0  0  0
   23.6150  -24.2170  -14.4680 C   0  0  0  0  0  0  0  0  0  0  0  0
   23.2310  -25.3530  -14.7590 O   0  0  0  0  0  0  0  0  0  0  0  0
   19.7800  -25.3410  -13.1590 N   0  0  0  0  0  0  0  0  0  0  0  0
   20.5840  -24.4200  -13.7020 C   0  0  0  0  0  0  0  0  0  0  0  0
   20.3920  -23.9300  -14.8180 O   0  0  0  0  0  0  0  0  0  0  0  0
   20.0220  -25.7030  -12.2480 H   0  0  0  0  0  0  0  0  0  0  0  0
   18.5200  -25.7960  -13.7320 C   0  0  0  0  0  2  0  0  0  0  0  0
   15.1480  -23.2490  -12.6840 C   0  0  0  0  0  0  0  0  0  0  0  0
   16.1530  -23.5210  -11.7330 C   0  0  0  0  0  3  0  0  0  0  0  0
   17.2440  -24.3410  -12.0690 C   0  0  0  0  0  3  0  0  0  0  0  0
   15.2500  -23.8020  -13.9780 C   0  0  0  0  0  3  0  0  0  0  0  0
   16.3440  -24.6230  -14.3140 C   0  0  0  0  0  3  0  0  0  0  0  0
   17.3470  -24.8980  -13.3620 C   0  0  0  0  0  0  0  0  0  0  0  0
   12.0530  -23.6170  -13.5170 C   0  0  0  0  0  1  0  0  0  0  0  0
   12.6860  -22.5610  -12.6350 C   0  0  0  0  0  0  0  0  0  0  0  0
   11.8560  -21.6380  -12.0340 N   0  0  0  0  0  0  0  0  0  0  0  0
   12.4580  -20.7830  -11.0170 C   0  0  0  0  0  2  0  0  0  0  0  0
   14.2350  -21.0620  -11.2420 S   0  0  0  0  0  0  0  0  0  0  0  0
   13.9760  -22.4520  -12.2840 C   0  0  0  0  0  0  0  0  0  0  0  0
   10.8440  -21.6660  -12.1150 H   0  0  0  0  0  0  0  0  0  0  0  0
   23.2060  -22.3800  -10.5930 O   0  0  0  0  0  0  0  0  0  0  0  0
   23.4020  -23.3050  -10.6980 H   0  0  0  0  0  0  0  0  0  0  0  0
   24.6270  -23.0210  -16.6000 C   0  0  1  0  0  0  0  0  0  0  0  0
   25.9400  -22.3880  -17.1250 C   0  0  0  0  0  1  0  0  0  0  0  0
   24.1550  -24.0630  -17.6490 C   0  0  0  0  0  1  0  0  0  0  0  0
   23.5710  -21.9030  -16.5400 C   0  0  0  0  0  1  0  0  0  0  0  0
   25.3460  -27.2430  -16.0190 C   0  0  0  0  0  2  0  0  0  0  0  0
   24.0140  -30.6270  -16.6130 C   0  0  0  0  0  0  0  0  0  0  0  0
   22.8260  -29.9290  -16.5500 C   0  0  0  0  0  0  0  0  0  0  0  0
   24.4830  -28.5300  -16.0380 C   0  0  0  0  0  0  0  0  0  0  0  0
   24.2720  -32.0610  -16.9650 C   0  0  0  0  0  1  0  0  0  0  0  0
   26.4660  -30.0580  -16.2860 C   0  0  0  0  0  1  0  0  0  0  0  0
   23.1310  -28.5980  -16.1730 N   0  0  0  0  0  0  0  0  0  0  0  0
   25.0460  -29.7350  -16.2860 N   0  0  0  0  0  0  0  0  0  0  0  0
   20.6230  -31.2400  -16.2920 C   0  0  0  0  0  0  0  0  0  0  0  0
   19.9730  -30.7730  -15.3510 O   0  0  0  0  0  0  0  0  0  0  0  0
   21.5920  -30.5680  -16.9830 N   0  0  0  0  0  0  0  0  0  0  0  0
   21.7550  -31.0530  -17.8530 H   0  0  0  0  0  0  0  0  0  0  0  0
   20.4250  -32.7310  -16.6700 C   0  0  0  0  0  2  0  0  0  0  0  0
   20.8870  -33.6410  -15.4910 C   0  0  0  0  0  3  0  0  0  0  0  0
   22.2630  -33.2790  -15.1500 N   0  0  0  0  0  0  0  0  0  0  0  0
   20.8150  -35.1470  -15.7060 C   0  0  0  0  0  0  0  0  0  0  0  0
   20.5450  -35.7880  -16.8490 N   0  0  0  0  0  0  0  0  0  0  0  0
   20.7070  -37.1340  -16.5720 N   0  0  0  0  0  0  0  0  0  0  0  0
   21.0730  -37.2010  -15.2880 C   0  0  0  0  0  0  0  0  0  0  0  0
   21.4190  -38.4850  -14.5940 C   0  0  0  0  0  1  0  0  0  0  0  0
   21.1250  -35.9880  -14.6960 N   0  0  0  0  0  0  0  0  0  0  0  0
   21.4260  -35.6320  -13.3640 C   0  0  0  0  0  0  0  0  0  0  0  0
   20.8930  -36.4820  -11.9480 S   0  0  0  0  0  0  0  0  0  0  0  0
   21.6010  -35.2820  -10.9040 C   0  0  0  0  0  0  0  0  0  0  0  0
   21.4830  -35.4330   -9.4210 C   0  0  0  0  0  1  0  0  0  0  0  0
   22.2030  -34.2670  -11.6150 C   0  0  0  0  0  0  0  0  0  0  0  0
   22.8290  -33.0670  -10.9460 C   0  0  0  0  0  1  0  0  0  0  0  0
   22.1380  -34.5000  -13.0330 C   0  0  0  0  0  0  0  0  0  0  0  0
   22.7950  -33.6140  -14.0400 C   0  0  0  0  0  0  0  0  0  0  0  0
   24.1560  -33.1150  -13.7650 C   0  0  0  0  0  0  0  0  0  0  0  0
   25.2170  -34.0190  -13.5570 C   0  0  0  0  0  3  0  0  0  0  0  0
   26.5100  -33.5340  -13.2810 C   0  0  0  0  0  3  0  0  0  0  0  0
   26.7470  -32.1490  -13.2200 C   0  0  0  0  0  0  0  0  0  0  0  0
   28.3270  -31.5470  -12.8970 Cl  0  0  0  0  0  0  0  0  0  0  0  0
   25.6860  -31.2490  -13.4060 C   0  0  0  0  0  3  0  0  0  0  0  0
   24.3920  -31.7310  -13.6700 C   0  0  0  0  0  3  0  0  0  0  0  0
  1  7  1  0
  1  2  1  0
  2  3  2  0
  4  2  1  0
  4  6  1  0
  5  1  1  0
  7 13  1  0
  8 16  1  0
  8  9  1  0
  9 10  1  0
 10 33  1  0
 11 10  1  0
 12 11  1  0
 12  8  1  0
 13 12  1  0
 14 13  2  0
 15 18  1  0
 16 15  1  0
 17 16  2  0
 19 25  1  0
 19 15  1  0
 20 31  1  0
 20 21  1  0
 22 21  2  0
 23 20  2  0
 24 23  1  0
 24 25  2  0
 25 22  1  0
 26 27  1  0
 27 31  2  0
 27 28  1  0
 28 29  1  0
 30 29  1  0
 31 30  1  0
 32 28  1  0
 34 33  1  0
 35 38  1  1
 35  7  1  0
 36 35  1  0
 37 35  1  0
 39  4  1  0
 40 41  2  0
 40 46  1  0
 41 45  1  0
 42 39  1  0
 43 40  1  0
 44 46  1  0
 45 42  2  0
 46 42  1  0
 47 48  2  0
 49 41  1  0
 49 47  1  0
 50 49  1  0
 51 47  1  0
 52 51  1  0
 52 53  1  0
 53 67  2  0
 54 52  1  0
 54 59  1  0
 55 56  1  0
 55 54  2  0
 56 57  2  0
 57 59  1  0
 57 58  1  0
 59 60  1  0
 60 66  2  0
 60 61  1  0
 61 62  1  0
 62 63  1  0
 64 65  1  0
 64 62  2  0
 66 64  1  0
 67 68  1  0
 67 66  1  0
 68 74  2  0
 68 69  1  0
 69 70  2  0
 70 71  1  0
 71 72  1  0
 73 71  2  0
 74 73  1  0
M  ISO  4   2 101   4 101  47 100  49 100
M  END
>  <TORSDO>  (42) 
F 14

>  <SCORE>  (42) 
-10.574

>  <name>  (42) 
41

>  <ligand_id>  (42) 
41

>  <original_smiles>  (42) 
[H]OC1([H])C([H])([H])N(C(=O)C([H])(N([H])C(=O)N([H])C([H])([H])c2nc(N([H])C(=O)C([H])([H])C3([H])N=C(c4c([H])c([H])c(Cl)c([H])c4[H])c4c(sc(C([H])([H])[H])c4C([H])([H])[H])-n4c(C([H])([H])[H])nnc43)c(C([H])([H])[H])n2C([H])([H])[H])C(C([H])([H])[H])(C([H])([H])[H])C([H])([H])[H])C([H])(C(=O)N([H])C([H])([H])c2c([H])c([H])c(C3=C(C([H])([H])[H])N([H])C([H])([H])S3)c([H])c2[H])C1([H])[H]

>  <smiles>  (42) 
[H]OC1([H])C([H])([H])N(C(=O)C([H])(N([H])C(=O)N([H])C([H])([H])c2nc(N([H])C(=O)C([H])([H])C3([H])N=C(c4c([H])c([H])c(Cl)c([H])c4[H])c4c(sc(C([H])([H])[H])c4C([H])([H])[H])-n4c(C([H])([H])[H])nnc43)c(C([H])([H])[H])n2C([H])([H])[H])C(C([H])([H])[H])(C([H])([H])[H])C([H])([H])[H])C([H])(C(=O)N([H])C([H])([H])c2c([H])c([H])c(C3=C(C([H])([H])[H])N([H])C([H])([H])S3)c([H])c2[H])C1([H])[H]

$$$$
42:0:0
     RDKit          3D

 80 86  0  0  1  0  0  0  0  0999 V2000
   24.9390  -30.1120  -17.5050 C   0  0  0  0  0  2  0  0  0  0  0  0
   26.1800  -28.0180  -16.7130 C   0  0  0  0  0  0  0  0  0  0  0  0
   23.7920  -29.6460  -17.1340 N   0  0  0  0  0  2  0  0  0  0  0  0
   25.1460  -27.2420  -16.3420 N   0  0  0  0  0  4  0  0  0  0  0  0
   27.4340  -27.5240  -16.5660 N   0  0  0  0  0  0  0  0  0  0  0  0
   26.0080  -29.2630  -17.2180 N   0  0  0  0  0  0  0  0  0  0  0  0
   25.2870  -26.3900  -15.8250 H   0  0  0  0  0  0  0  0  0  0  0  0
   24.2010  -27.5660  -16.4720 H   0  0  0  0  0  0  0  0  0  0  0  0
   28.2620  -28.0250  -16.8700 H   0  0  0  0  0  0  0  0  0  0  0  0
   26.8740  -29.7000  -17.4940 H   0  0  0  0  0  0  0  0  0  0  0  0
   22.7570  -30.5750  -17.3650 N   0  0  0  0  0  4  0  0  0  0  0  0
   22.8610  -30.9390  -18.3020 H   0  0  0  0  0  0  0  0  0  0  0  0
   22.8570  -31.3210  -16.6820 H   0  0  0  0  0  0  0  0  0  0  0  0
   20.6780  -30.8050  -16.4170 C   0  0  0  0  0  0  0  0  0  0  0  0
   20.0930  -30.3500  -15.4320 O   0  0  0  0  0  0  0  0  0  0  0  0
   21.3920  -29.9920  -17.2130 N   0  0  0  0  0  0  0  0  0  0  0  0
   21.3810  -28.9970  -17.0530 H   0  0  0  0  0  0  0  0  0  0  0  0
   20.6360  -32.3230  -16.6850 C   0  0  0  0  0  2  0  0  0  0  0  0
   21.2350  -33.1430  -15.5150 C   0  0  0  0  0  3  0  0  0  0  0  0
   22.6480  -32.7780  -15.3470 N   0  0  0  0  0  0  0  0  0  0  0  0
   21.0980  -34.6460  -15.6800 C   0  0  0  0  0  0  0  0  0  0  0  0
   20.6910  -35.2970  -16.7760 N   0  0  0  0  0  0  0  0  0  0  0  0
   20.8160  -36.6400  -16.4800 N   0  0  0  0  0  0  0  0  0  0  0  0
   21.3020  -36.6960  -15.2360 C   0  0  0  0  0  0  0  0  0  0  0  0
   21.6480  -37.9790  -14.5430 C   0  0  0  0  0  1  0  0  0  0  0  0
   21.4740  -35.4740  -14.6870 N   0  0  0  0  0  0  0  0  0  0  0  0
   21.9200  -35.0930  -13.4070 C   0  0  0  0  0  0  0  0  0  0  0  0
   21.4870  -35.8800  -11.9220 S   0  0  0  0  0  0  0  0  0  0  0  0
   22.3470  -34.6900  -10.9900 C   0  0  0  0  0  0  0  0  0  0  0  0
   22.3690  -34.8000   -9.4990 C   0  0  0  0  0  1  0  0  0  0  0  0
   22.9220  -33.7210  -11.7870 C   0  0  0  0  0  0  0  0  0  0  0  0
   23.6650  -32.5410  -11.2140 C   0  0  0  0  0  1  0  0  0  0  0  0
   22.7040  -33.9800  -13.1880 C   0  0  0  0  0  0  0  0  0  0  0  0
   23.2850  -33.1350  -14.2880 C   0  0  0  0  0  0  0  0  0  0  0  0
   24.6930  -32.7000  -14.1640 C   0  0  0  0  0  0  0  0  0  0  0  0
   25.6980  -33.6380  -13.8450 C   0  0  0  0  0  3  0  0  0  0  0  0
   27.0350  -33.2200  -13.7050 C   0  0  0  0  0  3  0  0  0  0  0  0
   27.3700  -31.8650  -13.8860 C   0  0  0  0  0  0  0  0  0  0  0  0
   29.0060  -31.3490  -13.7200 Cl  0  0  0  0  0  0  0  0  0  0  0  0
   26.3700  -30.9260  -14.1930 C   0  0  0  0  0  3  0  0  0  0  0  0
   25.0320  -31.3410  -14.3310 C   0  0  0  0  0  3  0  0  0  0  0  0
   27.6190  -26.1600  -16.3940 O   0  0  0  0  0  0  0  0  0  0  0  0
   26.0970  -24.4400  -15.3910 N   0  0  0  0  0  0  0  0  0  0  0  0
   27.1040  -24.7400  -14.5720 C   0  0  0  0  0  0  0  0  0  0  0  0
   27.3510  -24.1260  -13.5310 O   0  0  0  0  0  0  0  0  0  0  0  0
   27.8170  -25.7790  -15.0400 N   0  0  0  0  0  0  0  0  0  0  0  0
   26.0860  -24.9580  -16.2550 H   0  0  0  0  0  0  0  0  0  0  0  0
   28.6940  -26.1210  -14.6670 H   0  0  0  0  0  0  0  0  0  0  0  0
   25.0550  -23.4330  -15.2400 C   0  0  0  0  0  3  0  0  0  0  0  0
   21.9000  -23.9690  -12.9550 C   0  0  0  0  0  3  0  0  0  0  0  0
   21.3270  -22.7830  -12.1620 C   0  0  0  0  0  2  0  0  0  0  0  0
   22.5220  -21.8880  -11.9070 C   0  0  0  0  0  3  0  0  0  0  0  0
   23.4520  -22.1260  -13.0970 C   0  0  0  0  0  2  0  0  0  0  0  0
   23.0870  -23.4350  -13.6540 N   0  0  0  0  0  0  0  0  0  0  0  0
   23.8200  -24.1120  -14.5760 C   0  0  0  0  0  0  0  0  0  0  0  0
   23.5640  -25.2830  -14.8810 O   0  0  0  0  0  0  0  0  0  0  0  0
   20.0540  -25.5210  -13.3150 N   0  0  0  0  0  0  0  0  0  0  0  0
   20.8000  -24.5520  -13.8570 C   0  0  0  0  0  0  0  0  0  0  0  0
   20.5960  -24.0940  -14.9840 O   0  0  0  0  0  0  0  0  0  0  0  0
   20.3010  -25.8480  -12.3900 H   0  0  0  0  0  0  0  0  0  0  0  0
   18.8430  -26.0780  -13.9030 C   0  0  0  0  0  2  0  0  0  0  0  0
   15.2770  -23.7490  -13.0030 C   0  0  0  0  0  0  0  0  0  0  0  0
   16.2960  -23.8850  -12.0380 C   0  0  0  0  0  3  0  0  0  0  0  0
   17.4510  -24.6340  -12.3270 C   0  0  0  0  0  3  0  0  0  0  0  0
   15.4280  -24.3660  -14.2630 C   0  0  0  0  0  3  0  0  0  0  0  0
   16.5840  -25.1150  -14.5520 C   0  0  0  0  0  3  0  0  0  0  0  0
   17.6020  -25.2540  -13.5860 C   0  0  0  0  0  0  0  0  0  0  0  0
   12.2180  -24.4510  -13.7540 C   0  0  0  0  0  1  0  0  0  0  0  0
   12.7640  -23.2750  -12.9700 C   0  0  0  0  0  0  0  0  0  0  0  0
   11.8620  -22.3810  -12.4330 N   0  0  0  0  0  0  0  0  0  0  0  0
   12.3960  -21.3980  -11.4980 C   0  0  0  0  0  2  0  0  0  0  0  0
   14.1880  -21.5380  -11.7290 S   0  0  0  0  0  0  0  0  0  0  0  0
   14.0420  -23.0270  -12.6500 C   0  0  0  0  0  0  0  0  0  0  0  0
   10.8550  -22.5020  -12.4960 H   0  0  0  0  0  0  0  0  0  0  0  0
   23.1850  -22.2810  -10.7160 O   0  0  0  0  0  0  0  0  0  0  0  0
   23.4630  -23.1870  -10.8100 H   0  0  0  0  0  0  0  0  0  0  0  0
   24.7620  -22.8550  -16.6740 C   0  0  1  0  0  0  0  0  0  0  0  0
   26.0000  -22.0600  -17.1520 C   0  0  0  0  0  1  0  0  0  0  0  0
   24.4600  -23.9490  -17.7300 C   0  0  0  0  0  1  0  0  0  0  0  0
   23.5760  -21.8690  -16.6580 C   0  0  0  0  0  1  0  0  0  0  0  0
  1  6  1  0
  1  3  1  0
  2  5  1  0
  2  4  2  0
  4  7  1  0
  5 42  1  0
  6  2  1  0
  8  4  1  0
  9  5  1  0
 10  6  1  0
 11 16  1  0
 11  3  1  0
 11 13  1  0
 12 11  1  0
 14 15  2  0
 16 17  1  0
 16 14  1  0
 18 14  1  0
 19 18  1  0
 19 20  1  0
 20 34  2  0
 21 19  1  0
 21 26  1  0
 22 23  1  0
 22 21  2  0
 23 24  2  0
 24 26  1  0
 24 25  1  0
 26 27  1  0
 27 33  2  0
 27 28  1  0
 28 29  1  0
 29 30  1  0
 31 32  1  0
 31 29  2  0
 33 31  1  0
 34 35  1  0
 34 33  1  0
 35 36  1  0
 36 37  2  0
 38 39  1  0
 38 37  1  0
 40 38  2  0
 41 40  1  0
 41 35  2  0
 42 46  1  0
 43 49  1  0
 43 44  1  0
 44 45  2  0
 46 48  1  0
 46 44  1  0
 47 43  1  0
 49 55  1  0
 50 58  1  0
 50 51  1  0
 51 52  1  0
 52 75  1  0
 53 52  1  0
 54 53  1  0
 54 50  1  0
 55 54  1  0
 56 55  2  0
 57 60  1  0
 58 57  1  0
 59 58  2  0
 61 67  1  0
 61 57  1  0
 62 73  1  0
 62 63  1  0
 64 63  2  0
 65 62  2  0
 66 65  1  0
 66 67  2  0
 67 64  1  0
 68 69  1  0
 69 73  2  0
 69 70  1  0
 70 71  1  0
 72 71  1  0
 73 72  1  0
 74 70  1  0
 76 75  1  0
 77 80  1  1
 77 49  1  0
 78 77  1  0
 79 77  1  0
M  ISO  4  14 100  16 100  44 101  46 101
M  END
>  <TORSDO>  (43) 
F 15

>  <SCORE>  (43) 
-10.940

>  <name>  (43) 
42

>  <ligand_id>  (43) 
42

>  <original_smiles>  (43) 
[H]OC1([H])C([H])([H])N(C(=O)C([H])(N([H])C(=O)N([H])ON([H])C(N([H])[H])=[N+]([H])C([H])=N[N+]([H])([H])N([H])C(=O)C([H])([H])C2([H])N=C(c3c([H])c([H])c(Cl)c([H])c3[H])c3c(sc(C([H])([H])[H])c3C([H])([H])[H])-n3c(C([H])([H])[H])nnc32)C(C([H])([H])[H])(C([H])([H])[H])C([H])([H])[H])C([H])(C(=O)N([H])C([H])([H])c2c([H])c([H])c(C3=C(C([H])([H])[H])N([H])C([H])([H])S3)c([H])c2[H])C1([H])[H]

>  <smiles>  (43) 
[H]OC1([H])C([H])([H])N(C(=O)C([H])(N([H])C(=O)N([H])ON([H])C(N([H])[H])=[N+]([H])C([H])=N[N+]([H])([H])N([H])C(=O)C([H])([H])C2([H])N=C(c3c([H])c([H])c(Cl)c([H])c3[H])c3c(sc(C([H])([H])[H])c3C([H])([H])[H])-n3c(C([H])([H])[H])nnc32)C(C([H])([H])[H])(C([H])([H])[H])C([H])([H])[H])C([H])(C(=O)N([H])C([H])([H])c2c([H])c([H])c(C3=C(C([H])([H])[H])N([H])C([H])([H])S3)c([H])c2[H])C1([H])[H]

$$$$
43:0:0
     RDKit          3D

 70 77  0  0  1  0  0  0  0  0999 V2000
   25.8560  -24.6360  -15.4290 N   0  0  0  0  0  0  0  0  0  0  0  0
   26.8480  -25.1320  -14.6330 C   0  0  0  0  0  0  0  0  0  0  0  0
   27.3090  -24.5680  -13.6330 O   0  0  0  0  0  0  0  0  0  0  0  0
   25.5740  -25.2530  -16.1730 H   0  0  0  0  0  0  0  0  0  0  0  0
   27.2040  -26.3850  -15.1000 O   0  0  0  0  0  0  0  0  0  0  0  0
   26.6280  -27.0070  -16.2910 C   0  0  0  0  0  2  0  0  0  0  0  0
   25.2580  -27.7120  -16.0500 C   0  0  0  0  0  2  0  0  0  0  0  0
   24.2920  -28.3960  -18.4310 C   0  0  0  0  0  2  0  0  0  0  0  0
   23.2870  -28.8480  -17.3950 C   0  0  0  0  0  3  0  0  0  0  0  0
   24.1810  -27.6270  -17.1340 C   0  0  0  0  0  3  0  0  0  0  0  0
   21.7830  -28.7730  -17.6630 C   0  0  0  0  0  2  0  0  0  0  0  0
   21.1500  -30.1090  -18.1680 C   0  0  0  0  0  2  0  0  0  0  0  0
   20.6230  -31.0830  -17.0890 C   0  0  0  0  0  0  0  0  0  0  0  0
   20.1100  -30.6680  -16.0450 O   0  0  0  0  0  0  0  0  0  0  0  0
   20.7890  -32.5970  -17.3330 C   0  0  0  0  0  2  0  0  0  0  0  0
   21.2960  -33.3660  -16.0820 C   0  0  0  0  0  3  0  0  0  0  0  0
   22.6400  -32.8880  -15.7530 N   0  0  0  0  0  0  0  0  0  0  0  0
   21.3130  -34.8810  -16.2340 C   0  0  0  0  0  0  0  0  0  0  0  0
   21.0660  -35.5780  -17.3500 N   0  0  0  0  0  0  0  0  0  0  0  0
   21.2850  -36.9050  -17.0250 N   0  0  0  0  0  0  0  0  0  0  0  0
   21.6560  -36.9070  -15.7400 C   0  0  0  0  0  0  0  0  0  0  0  0
   22.0510  -38.1510  -15.0000 C   0  0  0  0  0  1  0  0  0  0  0  0
   21.6600  -35.6710  -15.1950 N   0  0  0  0  0  0  0  0  0  0  0  0
   21.9400  -35.2500  -13.8790 C   0  0  0  0  0  0  0  0  0  0  0  0
   21.4450  -36.0740  -12.4350 S   0  0  0  0  0  0  0  0  0  0  0  0
   22.0960  -34.8050  -11.4360 C   0  0  0  0  0  0  0  0  0  0  0  0
   21.9820  -34.9090   -9.9470 C   0  0  0  0  0  1  0  0  0  0  0  0
   22.6500  -33.7890  -12.1840 C   0  0  0  0  0  0  0  0  0  0  0  0
   23.2220  -32.5420  -11.5600 C   0  0  0  0  0  1  0  0  0  0  0  0
   22.5940  -34.0700  -13.5960 C   0  0  0  0  0  0  0  0  0  0  0  0
   23.1990  -33.1790  -14.6390 C   0  0  0  0  0  0  0  0  0  0  0  0
   24.5460  -32.6210  -14.3890 C   0  0  0  0  0  0  0  0  0  0  0  0
   25.5600  -33.4470  -13.8570 C   0  0  0  0  0  3  0  0  0  0  0  0
   26.8400  -32.9180  -13.5950 C   0  0  0  0  0  3  0  0  0  0  0  0
   27.1040  -31.5620  -13.8510 C   0  0  0  0  0  0  0  0  0  0  0  0
   28.6600  -30.8880  -13.5490 Cl  0  0  0  0  0  0  0  0  0  0  0  0
   26.0870  -30.7340  -14.3350 C   0  0  0  0  0  3  0  0  0  0  0  0
   24.8120  -31.2570  -14.6280 C   0  0  0  0  0  3  0  0  0  0  0  0
   24.9470  -23.5390  -15.2010 C   0  0  0  0  0  3  0  0  0  0  0  0
   21.8520  -23.9170  -12.8080 C   0  0  0  0  0  3  0  0  0  0  0  0
   21.3890  -22.7140  -11.9720 C   0  0  0  0  0  2  0  0  0  0  0  0
   22.6500  -21.9050  -11.7470 C   0  0  0  0  0  3  0  0  0  0  0  0
   23.5200  -22.1770  -12.9740 C   0  0  0  0  0  2  0  0  0  0  0  0
   23.0460  -23.4450  -13.5390 N   0  0  0  0  0  0  0  0  0  0  0  0
   23.6910  -24.1460  -14.5020 C   0  0  0  0  0  0  0  0  0  0  0  0
   23.3360  -25.2890  -14.8150 O   0  0  0  0  0  0  0  0  0  0  0  0
   19.8980  -25.3400  -13.1290 N   0  0  0  0  0  0  0  0  0  0  0  0
   20.6880  -24.4140  -13.6810 C   0  0  0  0  0  0  0  0  0  0  0  0
   20.4800  -23.9260  -14.7940 O   0  0  0  0  0  0  0  0  0  0  0  0
   20.1510  -25.6970  -12.2180 H   0  0  0  0  0  0  0  0  0  0  0  0
   18.6350  -25.8050  -13.6870 C   0  0  0  0  0  2  0  0  0  0  0  0
   15.2720  -23.2390  -12.6590 C   0  0  0  0  0  0  0  0  0  0  0  0
   16.3040  -23.4610  -11.7260 C   0  0  0  0  0  3  0  0  0  0  0  0
   17.3940  -24.2850  -12.0550 C   0  0  0  0  0  3  0  0  0  0  0  0
   15.3420  -23.8490  -13.9290 C   0  0  0  0  0  3  0  0  0  0  0  0
   16.4340  -24.6760  -14.2600 C   0  0  0  0  0  3  0  0  0  0  0  0
   17.4650  -24.8990  -13.3240 C   0  0  0  0  0  0  0  0  0  0  0  0
   12.1500  -23.7170  -13.3220 C   0  0  0  0  0  1  0  0  0  0  0  0
   12.8010  -22.5910  -12.5450 C   0  0  0  0  0  0  0  0  0  0  0  0
   11.9790  -21.6420  -11.9730 N   0  0  0  0  0  0  0  0  0  0  0  0
   12.6080  -20.7070  -11.0470 C   0  0  0  0  0  2  0  0  0  0  0  0
   14.3790  -20.9710  -11.3340 S   0  0  0  0  0  0  0  0  0  0  0  0
   14.1020  -22.4370  -12.2620 C   0  0  0  0  0  0  0  0  0  0  0  0
   10.9650  -21.6930  -12.0040 H   0  0  0  0  0  0  0  0  0  0  0  0
   23.3280  -22.3650  -10.5890 O   0  0  0  0  0  0  0  0  0  0  0  0
   23.5360  -23.2870  -10.7060 H   0  0  0  0  0  0  0  0  0  0  0  0
   24.6570  -22.9260  -16.6180 C   0  0  1  0  0  0  0  0  0  0  0  0
   25.9480  -22.2470  -17.1360 C   0  0  0  0  0  1  0  0  0  0  0  0
   24.2190  -23.9740  -17.6730 C   0  0  0  0  0  1  0  0  0  0  0  0
   23.5670  -21.8400  -16.5490 C   0  0  0  0  0  1  0  0  0  0  0  0
  1 39  1  0
  1  2  1  0
  2  3  2  0
  4  1  1  0
  5  2  1  0
  6  7  1  0
  6  5  1  0
  8  9  1  0
  8 10  1  0
  9 11  1  0
  9 10  1  0
 10  7  1  0
 12 11  1  0
 12 13  1  0
 13 14  2  0
 15 13  1  0
 16 15  1  0
 16 17  1  0
 17 31  2  0
 18 16  1  0
 18 23  1  0
 19 20  1  0
 19 18  2  0
 20 21  2  0
 21 23  1  0
 21 22  1  0
 23 24  1  0
 24 30  2  0
 24 25  1  0
 25 26  1  0
 26 27  1  0
 28 29  1  0
 28 26  2  0
 30 28  1  0
 31 32  1  0
 31 30  1  0
 32 33  1  0
 33 34  2  0
 35 34  1  0
 35 36  1  0
 37 35  2  0
 38 32  2  0
 38 37  1  0
 39 45  1  0
 40 48  1  0
 40 41  1  0
 41 42  1  0
 42 65  1  0
 43 42  1  0
 44 43  1  0
 44 40  1  0
 45 44  1  0
 46 45  2  0
 47 50  1  0
 48 47  1  0
 49 48  2  0
 51 57  1  0
 51 47  1  0
 52 63  1  0
 52 53  1  0
 54 53  2  0
 55 52  2  0
 56 55  1  0
 56 57  2  0
 57 54  1  0
 58 59  1  0
 59 63  2  0
 59 60  1  0
 60 61  1  0
 62 61  1  0
 63 62  1  0
 64 60  1  0
 66 65  1  0
 67 70  1  1
 67 39  1  0
 68 67  1  0
 69 67  1  0
M  ISO  4   2 101   5 101  12 100  13 100
M  END
>  <TORSDO>  (44) 
F 18

>  <SCORE>  (44) 
-12.887

>  <name>  (44) 
43

>  <ligand_id>  (44) 
43

>  <original_smiles>  (44) 
[H]OC1([H])C([H])([H])N(C(=O)C([H])(N([H])C(=O)OC([H])([H])C([H])([H])C2([H])C([H])([H])C2([H])C([H])([H])C([H])([H])C(=O)C([H])([H])C2([H])N=C(c3c([H])c([H])c(Cl)c([H])c3[H])c3c(sc(C([H])([H])[H])c3C([H])([H])[H])-n3c(C([H])([H])[H])nnc32)C(C([H])([H])[H])(C([H])([H])[H])C([H])([H])[H])C([H])(C(=O)N([H])C([H])([H])c2c([H])c([H])c(C3=C(C([H])([H])[H])N([H])C([H])([H])S3)c([H])c2[H])C1([H])[H]

>  <smiles>  (44) 
[H]OC1([H])C([H])([H])N(C(=O)C([H])(N([H])C(=O)OC([H])([H])C([H])([H])C2([H])C([H])([H])C2([H])C([H])([H])C([H])([H])C(=O)C([H])([H])C2([H])N=C(c3c([H])c([H])c(Cl)c([H])c3[H])c3c(sc(C([H])([H])[H])c3C([H])([H])[H])-n3c(C([H])([H])[H])nnc32)C(C([H])([H])[H])(C([H])([H])[H])C([H])([H])[H])C([H])(C(=O)N([H])C([H])([H])c2c([H])c([H])c(C3=C(C([H])([H])[H])N([H])C([H])([H])S3)c([H])c2[H])C1([H])[H]

$$$$
44:0:0
     RDKit          3D

 77 83  0  0  1  0  0  0  0  0999 V2000
   25.6970  -24.8700  -15.5270 N   0  0  0  0  0  0  0  0  0  0  0  0
   26.4720  -25.5900  -14.7380 C   0  0  0  0  0  0  0  0  0  0  0  0
   27.2310  -25.0810  -13.8880 O   0  0  0  0  0  0  0  0  0  0  0  0
   23.2070  -28.9940  -16.4850 C   0  0  0  0  0  0  0  0  0  0  0  0
   25.2340  -27.5810  -15.7930 C   0  0  0  0  0  0  0  0  0  0  0  0
   24.3270  -28.6180  -15.5860 N   0  0  0  0  0  0  0  0  0  0  0  0
   26.0230  -27.0050  -14.7910 N   0  0  0  0  0  0  0  0  0  0  0  0
   25.3780  -27.1560  -17.0670 N   0  0  0  0  0  4  0  0  0  0  0  0
   22.8010  -28.1660  -17.3060 O   0  0  0  0  0  0  0  0  0  0  0  0
   25.2470  -25.4160  -16.2500 H   0  0  0  0  0  0  0  0  0  0  0  0
   24.5230  -29.1770  -14.7720 H   0  0  0  0  0  0  0  0  0  0  0  0
   26.2760  -27.6190  -14.0340 H   0  0  0  0  0  0  0  0  0  0  0  0
   24.7020  -27.4670  -17.7600 H   0  0  0  0  0  0  0  0  0  0  0  0
   26.2370  -26.7510  -17.4150 H   0  0  0  0  0  0  0  0  0  0  0  0
   24.8660  -23.7360  -15.1560 C   0  0  0  0  0  3  0  0  0  0  0  0
   21.7400  -23.8340  -12.7520 C   0  0  0  0  0  3  0  0  0  0  0  0
   21.2900  -22.5490  -12.0390 C   0  0  0  0  0  2  0  0  0  0  0  0
   22.5620  -21.7430  -11.8770 C   0  0  0  0  0  3  0  0  0  0  0  0
   23.4370  -22.1450  -13.0630 C   0  0  0  0  0  2  0  0  0  0  0  0
   22.9500  -23.4540  -13.5120 N   0  0  0  0  0  0  0  0  0  0  0  0
   23.5980  -24.2540  -14.3960 C   0  0  0  0  0  0  0  0  0  0  0  0
   23.2350  -25.4200  -14.5980 O   0  0  0  0  0  0  0  0  0  0  0  0
   19.7860  -25.2800  -12.9760 N   0  0  0  0  0  0  0  0  0  0  0  0
   20.5720  -24.3860  -13.5870 C   0  0  0  0  0  0  0  0  0  0  0  0
   20.3550  -23.9660  -14.7270 O   0  0  0  0  0  0  0  0  0  0  0  0
   20.0480  -25.5820  -12.0480 H   0  0  0  0  0  0  0  0  0  0  0  0
   18.5210  -25.7830  -13.4960 C   0  0  0  0  0  2  0  0  0  0  0  0
   15.1470  -23.1830  -12.6000 C   0  0  0  0  0  0  0  0  0  0  0  0
   16.1780  -23.3550  -11.6540 C   0  0  0  0  0  3  0  0  0  0  0  0
   17.2700  -24.1920  -11.9410 C   0  0  0  0  0  3  0  0  0  0  0  0
   15.2230  -23.8550  -13.8390 C   0  0  0  0  0  3  0  0  0  0  0  0
   16.3180  -24.6910  -14.1250 C   0  0  0  0  0  3  0  0  0  0  0  0
   17.3470  -24.8660  -13.1790 C   0  0  0  0  0  0  0  0  0  0  0  0
   12.0320  -23.6810  -13.2860 C   0  0  0  0  0  1  0  0  0  0  0  0
   12.6750  -22.5290  -12.5390 C   0  0  0  0  0  0  0  0  0  0  0  0
   11.8480  -21.5590  -12.0110 N   0  0  0  0  0  0  0  0  0  0  0  0
   12.4680  -20.5940  -11.1100 C   0  0  0  0  0  2  0  0  0  0  0  0
   14.2410  -20.8700  -11.3640 S   0  0  0  0  0  0  0  0  0  0  0  0
   13.9730  -22.3660  -12.2460 C   0  0  0  0  0  0  0  0  0  0  0  0
   10.8350  -21.6070  -12.0580 H   0  0  0  0  0  0  0  0  0  0  0  0
   23.2210  -22.1020  -10.6730 O   0  0  0  0  0  0  0  0  0  0  0  0
   23.4050  -23.0350  -10.6970 H   0  0  0  0  0  0  0  0  0  0  0  0
   24.5550  -23.0110  -16.5120 C   0  0  1  0  0  0  0  0  0  0  0  0
   25.8700  -22.4310  -17.0860 C   0  0  0  0  0  1  0  0  0  0  0  0
   23.9430  -23.9490  -17.5860 C   0  0  0  0  0  1  0  0  0  0  0  0
   23.5830  -21.8340  -16.3150 C   0  0  0  0  0  1  0  0  0  0  0  0
   22.5800  -30.4510  -16.5160 C   0  0  0  0  0  3  0  0  0  0  0  0
   20.1730  -31.4010  -16.2450 C   0  0  0  0  0  0  0  0  0  0  0  0
   19.2420  -31.0440  -15.5320 O   0  0  0  0  0  0  0  0  0  0  0  0
   21.0930  -30.4490  -16.5790 N   0  0  0  0  0  0  0  0  0  0  0  0
   20.7340  -29.5100  -16.4570 H   0  0  0  0  0  0  0  0  0  0  0  0
   20.2570  -32.9120  -16.6240 C   0  0  0  0  0  2  0  0  0  0  0  0
   20.7490  -33.7750  -15.4260 C   0  0  0  0  0  3  0  0  0  0  0  0
   22.0720  -33.2580  -15.1130 N   0  0  0  0  0  0  0  0  0  0  0  0
   20.8290  -35.2920  -15.6160 C   0  0  0  0  0  0  0  0  0  0  0  0
   20.5670  -35.9860  -16.7320 N   0  0  0  0  0  0  0  0  0  0  0  0
   20.8800  -37.3030  -16.4400 N   0  0  0  0  0  0  0  0  0  0  0  0
   21.3030  -37.3070  -15.1730 C   0  0  0  0  0  0  0  0  0  0  0  0
   21.8090  -38.5350  -14.4750 C   0  0  0  0  0  1  0  0  0  0  0  0
   21.2530  -36.0820  -14.6030 N   0  0  0  0  0  0  0  0  0  0  0  0
   21.5580  -35.6770  -13.2850 C   0  0  0  0  0  0  0  0  0  0  0  0
   21.1740  -36.5570  -11.8390 S   0  0  0  0  0  0  0  0  0  0  0  0
   21.7850  -35.2680  -10.8370 C   0  0  0  0  0  0  0  0  0  0  0  0
   21.7430  -35.4050   -9.3490 C   0  0  0  0  0  1  0  0  0  0  0  0
   22.2440  -34.2070  -11.5830 C   0  0  0  0  0  0  0  0  0  0  0  0
   22.7600  -32.9340  -10.9590 C   0  0  0  0  0  1  0  0  0  0  0  0
   22.1530  -34.4700  -12.9940 C   0  0  0  0  0  0  0  0  0  0  0  0
   22.6730  -33.5310  -14.0260 C   0  0  0  0  0  0  0  0  0  0  0  0
   23.9820  -32.8850  -13.8180 C   0  0  0  0  0  0  0  0  0  0  0  0
   25.1030  -33.6580  -13.4520 C   0  0  0  0  0  3  0  0  0  0  0  0
   26.3480  -33.0340  -13.2430 C   0  0  0  0  0  3  0  0  0  0  0  0
   26.4810  -31.6470  -13.4290 C   0  0  0  0  0  0  0  0  0  0  0  0
   27.9990  -30.8720  -13.1810 Cl  0  0  0  0  0  0  0  0  0  0  0  0
   25.3670  -30.8770  -13.7870 C   0  0  0  0  0  3  0  0  0  0  0  0
   24.1110  -31.4880  -13.9450 C   0  0  0  0  0  3  0  0  0  0  0  0
   23.7780  -32.4580  -17.5150 C   0  0  0  0  0  2  0  0  0  0  0  0
   23.1130  -31.2990  -17.6590 C   0  0  0  0  0  3  0  0  0  0  0  0
  1 15  1  0
  1  2  1  0
  2  3  2  0
  4  6  1  0
  5  6  1  0
  5  7  1  0
  6 11  1  0
  7  2  1  0
  7 12  1  0
  8  5  2  0
  9  4  2  0
 10  1  1  0
 13  8  1  0
 14  8  1  0
 15 21  1  0
 16 24  1  0
 16 17  1  0
 17 18  1  0
 18 41  1  0
 19 18  1  0
 20 19  1  0
 20 16  1  0
 21 20  1  0
 22 21  2  0
 23 26  1  0
 24 23  1  0
 25 24  2  0
 27 33  1  0
 27 23  1  0
 28 39  1  0
 28 29  1  0
 30 29  2  0
 31 28  2  0
 32 31  1  0
 32 33  2  0
 33 30  1  0
 34 35  1  0
 35 39  2  0
 35 36  1  0
 36 37  1  0
 38 37  1  0
 39 38  1  0
 40 36  1  0
 42 41  1  0
 43 46  1  1
 43 15  1  0
 44 43  1  0
 45 43  1  0
 47 77  1  0
 47  4  1  0
 48 49  2  0
 50 47  1  0
 50 51  1  0
 50 48  1  0
 52 48  1  0
 53 52  1  0
 53 54  1  0
 54 68  2  0
 55 53  1  0
 55 60  1  0
 56 57  1  0
 56 55  2  0
 57 58  2  0
 58 60  1  0
 58 59  1  0
 60 61  1  0
 61 67  2  0
 61 62  1  0
 62 63  1  0
 63 64  1  0
 65 66  1  0
 65 63  2  0
 67 65  1  0
 68 69  1  0
 68 67  1  0
 69 70  1  0
 70 71  2  0
 72 71  1  0
 72 73  1  0
 74 72  2  0
 75 69  2  0
 75 74  1  0
 77 76  2  0
M  ISO  4   2 101   7 101  48 100  50 100
M  END
>  <TORSDO>  (45) 
F 14

>  <SCORE>  (45) 
-9.727

>  <name>  (45) 
44

>  <ligand_id>  (45) 
44

>  <original_smiles>  (45) 
[H]OC1([H])C([H])([H])N(C(=O)C([H])(N([H])C(=O)N([H])C(N([H])C(=O)C([H])(C([H])=C([H])[H])N([H])C(=O)C([H])([H])C2([H])N=C(c3c([H])c([H])c(Cl)c([H])c3[H])c3c(sc(C([H])([H])[H])c3C([H])([H])[H])-n3c(C([H])([H])[H])nnc32)=[N+]([H])[H])C(C([H])([H])[H])(C([H])([H])[H])C([H])([H])[H])C([H])(C(=O)N([H])C([H])([H])c2c([H])c([H])c(C3=C(C([H])([H])[H])N([H])C([H])([H])S3)c([H])c2[H])C1([H])[H]

>  <smiles>  (45) 
[H]OC1([H])C([H])([H])N(C(=O)C([H])(N([H])C(=O)N([H])C(N([H])C(=O)C([H])(C([H])=C([H])[H])N([H])C(=O)C([H])([H])C2([H])N=C(c3c([H])c([H])c(Cl)c([H])c3[H])c3c(sc(C([H])([H])[H])c3C([H])([H])[H])-n3c(C([H])([H])[H])nnc32)=[N+]([H])[H])C(C([H])([H])[H])(C([H])([H])[H])C([H])([H])[H])C([H])(C(=O)N([H])C([H])([H])c2c([H])c([H])c(C3=C(C([H])([H])[H])N([H])C([H])([H])S3)c([H])c2[H])C1([H])[H]

$$$$
45:0:0
     RDKit          3D

 79 86  0  0  1  0  0  0  0  0999 V2000
   26.8860  -27.1290  -15.1610 C   0  0  0  0  0  0  0  0  0  0  0  0
   28.1800  -27.2830  -14.1170 S   0  0  0  0  0  0  0  0  0  0  0  0
   25.8530  -24.3690  -16.8270 N   0  0  0  0  0  0  0  0  0  0  0  0
   26.8750  -24.8990  -16.1560 C   0  0  0  0  0  0  0  0  0  0  0  0
   27.6520  -24.2400  -15.4590 O   0  0  0  0  0  0  0  0  0  0  0  0
   26.6970  -26.2260  -16.1560 N   0  0  0  0  0  0  0  0  0  0  0  0
   25.3880  -24.9650  -17.4930 H   0  0  0  0  0  0  0  0  0  0  0  0
   25.9510  -26.5070  -16.7700 H   0  0  0  0  0  0  0  0  0  0  0  0
   24.9190  -23.4220  -16.2110 C   0  0  0  0  0  3  0  0  0  0  0  0
   22.3290  -24.4130  -13.3990 C   0  0  0  0  0  3  0  0  0  0  0  0
   21.9430  -23.3850  -12.3250 C   0  0  0  0  0  2  0  0  0  0  0  0
   23.1640  -22.4990  -12.1950 C   0  0  0  0  0  3  0  0  0  0  0  0
   23.8160  -22.5170  -13.5770 C   0  0  0  0  0  2  0  0  0  0  0  0
   23.3360  -23.7330  -14.2420 N   0  0  0  0  0  0  0  0  0  0  0  0
   23.8480  -24.2260  -15.3990 C   0  0  0  0  0  0  0  0  0  0  0  0
   23.5150  -25.3340  -15.8230 O   0  0  0  0  0  0  0  0  0  0  0  0
   20.3390  -25.8250  -13.4810 N   0  0  0  0  0  0  0  0  0  0  0  0
   21.0580  -24.8950  -14.1190 C   0  0  0  0  0  0  0  0  0  0  0  0
   20.7060  -24.3870  -15.1870 O   0  0  0  0  0  0  0  0  0  0  0  0
   20.7060  -26.1950  -12.6160 H   0  0  0  0  0  0  0  0  0  0  0  0
   19.0120  -26.2780  -13.8760 C   0  0  0  0  0  2  0  0  0  0  0  0
   15.8430  -23.5230  -12.7190 C   0  0  0  0  0  0  0  0  0  0  0  0
   16.9200  -23.7720  -11.8430 C   0  0  0  0  0  3  0  0  0  0  0  0
   17.9460  -24.6600  -12.2160 C   0  0  0  0  0  3  0  0  0  0  0  0
   15.8060  -24.1680  -13.9740 C   0  0  0  0  0  3  0  0  0  0  0  0
   16.8350  -25.0550  -14.3450 C   0  0  0  0  0  3  0  0  0  0  0  0
   17.9110  -25.3070  -13.4690 C   0  0  0  0  0  0  0  0  0  0  0  0
   12.6820  -23.7650  -13.3220 C   0  0  0  0  0  1  0  0  0  0  0  0
   13.4270  -22.7090  -12.5320 C   0  0  0  0  0  0  0  0  0  0  0  0
   12.6860  -21.7210  -11.9160 N   0  0  0  0  0  0  0  0  0  0  0  0
   13.3980  -20.8570  -10.9810 C   0  0  0  0  0  2  0  0  0  0  0  0
   15.1400  -21.2350  -11.3160 S   0  0  0  0  0  0  0  0  0  0  0  0
   14.7420  -22.6520  -12.2750 C   0  0  0  0  0  0  0  0  0  0  0  0
   11.6700  -21.6990  -11.9290 H   0  0  0  0  0  0  0  0  0  0  0  0
   24.0700  -23.0470  -11.2500 O   0  0  0  0  0  0  0  0  0  0  0  0
   24.3220  -23.9170  -11.5420 H   0  0  0  0  0  0  0  0  0  0  0  0
   24.3040  -22.5540  -17.3620 C   0  0  1  0  0  0  0  0  0  0  0  0
   25.4260  -21.6840  -17.9750 C   0  0  0  0  0  1  0  0  0  0  0  0
   23.6710  -23.3980  -18.4960 C   0  0  0  0  0  1  0  0  0  0  0  0
   23.2260  -21.5910  -16.8220 C   0  0  0  0  0  1  0  0  0  0  0  0
   25.8200  -27.9690  -15.0600 N   0  0  0  0  0  0  0  0  0  0  0  0
   25.7440  -28.4290  -14.1620 H   0  0  0  0  0  0  0  0  0  0  0  0
   23.4420  -28.4080  -15.3850 C   0  0  0  0  0  3  0  0  0  0  0  0
   24.8610  -28.2630  -17.3640 C   0  0  0  0  0  3  0  0  0  0  0  0
   22.3330  -28.6980  -16.2090 C   0  0  0  0  0  3  0  0  0  0  0  0
   23.7590  -28.5770  -18.1830 C   0  0  0  0  0  3  0  0  0  0  0  0
   24.7160  -28.1800  -15.9520 C   0  0  0  0  0  0  0  0  0  0  0  0
   22.4980  -28.8050  -17.6060 C   0  0  0  0  0  0  0  0  0  0  0  0
   21.4240  -28.8520  -20.0460 O   0  0  0  0  0  0  0  0  0  0  0  0
   19.8510  -28.7610  -18.0540 O   0  0  0  0  0  0  0  0  0  0  0  0
   21.1050  -29.2420  -18.6620 S   0  0  2  0  0  0  0  0  0  0  0  0
   20.7320  -31.7330  -17.5270 C   0  0  0  0  0  0  0  0  0  0  0  0
   20.2830  -31.2120  -16.5070 O   0  0  0  0  0  0  0  0  0  0  0  0
   21.0930  -30.9640  -18.6310 N   0  0  0  0  0  0  0  0  0  0  0  0
   21.6980  -31.3580  -19.3500 H   0  0  0  0  0  0  0  0  0  0  0  0
   21.0160  -33.2440  -17.5820 C   0  0  0  0  0  2  0  0  0  0  0  0
   21.4690  -33.8180  -16.2110 C   0  0  0  0  0  3  0  0  0  0  0  0
   22.8030  -33.3020  -15.9010 N   0  0  0  0  0  0  0  0  0  0  0  0
   21.4790  -35.3370  -16.1370 C   0  0  0  0  0  0  0  0  0  0  0  0
   21.2730  -36.1890  -17.1480 N   0  0  0  0  0  0  0  0  0  0  0  0
   21.4610  -37.4510  -16.6200 N   0  0  0  0  0  0  0  0  0  0  0  0
   21.7750  -37.2660  -15.3340 C   0  0  0  0  0  0  0  0  0  0  0  0
   22.1230  -38.3850  -14.4010 C   0  0  0  0  0  1  0  0  0  0  0  0
   21.7720  -35.9620  -14.9780 N   0  0  0  0  0  0  0  0  0  0  0  0
   22.0010  -35.3510  -13.7290 C   0  0  0  0  0  0  0  0  0  0  0  0
   21.4340  -35.9420  -12.2000 S   0  0  0  0  0  0  0  0  0  0  0  0
   22.0600  -34.5430  -11.3760 C   0  0  0  0  0  0  0  0  0  0  0  0
   21.8880  -34.4230   -9.8950 C   0  0  0  0  0  1  0  0  0  0  0  0
   22.6590  -33.6550  -12.2440 C   0  0  0  0  0  0  0  0  0  0  0  0
   23.2200  -32.3300  -11.7900 C   0  0  0  0  0  1  0  0  0  0  0  0
   22.6580  -34.1470  -13.5980 C   0  0  0  0  0  0  0  0  0  0  0  0
   23.3200  -33.4310  -14.7360 C   0  0  0  0  0  0  0  0  0  0  0  0
   24.6690  -32.8610  -14.5220 C   0  0  0  0  0  0  0  0  0  0  0  0
   25.5850  -33.4980  -13.6570 C   0  0  0  0  0  3  0  0  0  0  0  0
   26.8540  -32.9330  -13.4280 C   0  0  0  0  0  3  0  0  0  0  0  0
   27.2180  -31.7400  -14.0730 C   0  0  0  0  0  0  0  0  0  0  0  0
   28.7610  -31.0240  -13.7990 Cl  0  0  0  0  0  0  0  0  0  0  0  0
   26.3230  -31.1280  -14.9610 C   0  0  0  0  0  3  0  0  0  0  0  0
   25.0460  -31.6780  -15.1830 C   0  0  0  0  0  3  0  0  0  0  0  0
  1 41  1  0
  1  2  2  0
  3  9  1  0
  3  4  1  0
  4  5  2  0
  6  4  1  0
  6  1  1  0
  7  3  1  0
  8  6  1  0
  9 15  1  0
 10 18  1  0
 10 11  1  0
 11 12  1  0
 12 35  1  0
 13 12  1  0
 14 13  1  0
 14 10  1  0
 15 14  1  0
 16 15  2  0
 17 20  1  0
 18 17  1  0
 19 18  2  0
 21 17  1  0
 21 27  1  0
 22 33  1  0
 22 23  1  0
 24 23  2  0
 25 22  2  0
 26 25  1  0
 26 27  2  0
 27 24  1  0
 28 29  1  0
 29 33  2  0
 29 30  1  0
 30 31  1  0
 32 31  1  0
 33 32  1  0
 34 30  1  0
 36 35  1  0
 37 40  1  1
 37  9  1  0
 38 37  1  0
 39 37  1  0
 41 42  1  0
 44 47  2  0
 45 43  2  0
 46 48  2  0
 46 44  1  0
 47 43  1  0
 47 41  1  0
 48 45  1  0
 49 51  2  0
 51 54  1  6
 51 50  2  0
 51 48  1  0
 52 53  2  0
 54 52  1  0
 55 54  1  0
 56 52  1  0
 57 56  1  0
 57 59  1  0
 57 58  1  0
 58 72  2  0
 59 64  1  0
 60 61  1  0
 60 59  2  0
 61 62  2  0
 62 64  1  0
 62 63  1  0
 64 65  1  0
 65 71  2  0
 65 66  1  0
 66 67  1  0
 67 68  1  0
 69 70  1  0
 69 67  2  0
 71 69  1  0
 72 73  1  0
 72 71  1  0
 73 74  1  0
 74 75  2  0
 76 77  1  0
 76 75  1  0
 78 76  2  0
 79 78  1  0
 79 73  2  0
M  ISO  4   4 101   6 101  52 100  54 100
M  END
>  <TORSDO>  (46) 
F 16

>  <SCORE>  (46) 
-12.967

>  <name>  (46) 
45

>  <ligand_id>  (46) 
45

>  <original_smiles>  (46) 
[H]OC1([H])C([H])([H])N(C(=O)C([H])(N([H])C(=O)N([H])C(=S)N([H])c2c([H])c([H])c(S(=O)(=O)N([H])C(=O)C([H])([H])C3([H])N=C(c4c([H])c([H])c(Cl)c([H])c4[H])c4c(sc(C([H])([H])[H])c4C([H])([H])[H])-n4c(C([H])([H])[H])nnc43)c([H])c2[H])C(C([H])([H])[H])(C([H])([H])[H])C([H])([H])[H])C([H])(C(=O)N([H])C([H])([H])c2c([H])c([H])c(C3=C(C([H])([H])[H])N([H])C([H])([H])S3)c([H])c2[H])C1([H])[H]

>  <smiles>  (46) 
[H]OC1([H])C([H])([H])N(C(=O)C([H])(N([H])C(=O)N([H])C(=S)N([H])c2c([H])c([H])c(S(=O)(=O)N([H])C(=O)C([H])([H])C3([H])N=C(c4c([H])c([H])c(Cl)c([H])c4[H])c4c(sc(C([H])([H])[H])c4C([H])([H])[H])-n4c(C([H])([H])[H])nnc43)c([H])c2[H])C(C([H])([H])[H])(C([H])([H])[H])C([H])([H])[H])C([H])(C(=O)N([H])C([H])([H])c2c([H])c([H])c(C3=C(C([H])([H])[H])N([H])C([H])([H])S3)c([H])c2[H])C1([H])[H]

$$$$
46:0:0
     RDKit          3D

 77 83  0  0  1  0  0  0  0  0999 V2000
   25.7410  -24.7210  -15.6510 N   0  0  0  0  0  0  0  0  0  0  0  0
   26.5390  -25.4680  -14.8970 C   0  0  0  0  0  0  0  0  0  0  0  0
   27.2870  -24.9870  -14.0340 O   0  0  0  0  0  0  0  0  0  0  0  0
   25.2240  -27.4500  -15.6300 C   0  0  0  0  0  0  0  0  0  0  0  0
   24.8570  -27.3050  -16.8720 N   0  0  0  0  0  2  0  0  0  0  0  0
   24.5990  -28.2240  -14.6770 N   0  0  0  0  0  4  0  0  0  0  0  0
   26.3640  -26.7960  -15.1040 N   0  0  0  0  0  0  0  0  0  0  0  0
   25.2920  -25.2260  -16.4000 H   0  0  0  0  0  0  0  0  0  0  0  0
   23.6060  -28.4110  -14.6760 H   0  0  0  0  0  0  0  0  0  0  0  0
   24.9300  -28.2850  -13.7230 H   0  0  0  0  0  0  0  0  0  0  0  0
   26.9750  -27.3530  -14.5250 H   0  0  0  0  0  0  0  0  0  0  0  0
   24.1190  -28.3970  -17.4480 N   0  0  0  0  0  4  0  0  0  0  0  0
   24.2230  -28.2730  -18.4440 H   0  0  0  0  0  0  0  0  0  0  0  0
   24.6330  -29.2270  -17.1990 H   0  0  0  0  0  0  0  0  0  0  0  0
   22.6610  -28.6320  -17.1870 C   0  0  0  0  0  2  0  0  0  0  0  0
   22.8840  -30.8600  -18.6250 C   0  0  0  0  0  1  0  0  0  0  0  0
   21.9930  -29.6880  -18.1640 C   0  0  0  0  0  3  0  0  0  0  0  0
   20.2160  -31.1010  -16.9270 C   0  0  0  0  0  0  0  0  0  0  0  0
   19.7110  -30.7740  -15.8580 O   0  0  0  0  0  0  0  0  0  0  0  0
   20.6250  -30.1080  -17.7530 N   0  0  0  0  0  0  0  0  0  0  0  0
   20.0500  -29.2870  -17.6090 H   0  0  0  0  0  0  0  0  0  0  0  0
   20.3250  -32.6170  -17.2610 C   0  0  0  0  0  2  0  0  0  0  0  0
   20.8830  -33.4510  -16.0670 C   0  0  0  0  0  3  0  0  0  0  0  0
   22.2210  -32.9460  -15.7910 N   0  0  0  0  0  0  0  0  0  0  0  0
   20.9430  -34.9660  -16.2570 C   0  0  0  0  0  0  0  0  0  0  0  0
   20.6510  -35.6500  -17.3700 N   0  0  0  0  0  0  0  0  0  0  0  0
   20.9450  -36.9730  -17.0890 N   0  0  0  0  0  0  0  0  0  0  0  0
   21.3970  -36.9870  -15.8300 C   0  0  0  0  0  0  0  0  0  0  0  0
   21.8950  -38.2260  -15.1460 C   0  0  0  0  0  1  0  0  0  0  0  0
   21.3840  -35.7630  -15.2580 N   0  0  0  0  0  0  0  0  0  0  0  0
   21.7300  -35.3640  -13.9500 C   0  0  0  0  0  0  0  0  0  0  0  0
   21.3650  -36.2370  -12.4950 S   0  0  0  0  0  0  0  0  0  0  0  0
   22.0290  -34.9620  -11.5090 C   0  0  0  0  0  0  0  0  0  0  0  0
   22.0210  -35.1000  -10.0210 C   0  0  0  0  0  1  0  0  0  0  0  0
   22.4910  -33.9080  -12.2670 C   0  0  0  0  0  0  0  0  0  0  0  0
   23.0490  -32.6480  -11.6540 C   0  0  0  0  0  1  0  0  0  0  0  0
   22.3560  -34.1680  -13.6770 C   0  0  0  0  0  0  0  0  0  0  0  0
   22.8620  -33.2400  -14.7280 C   0  0  0  0  0  0  0  0  0  0  0  0
   24.2020  -32.6360  -14.5640 C   0  0  0  0  0  0  0  0  0  0  0  0
   25.2650  -33.3960  -14.0310 C   0  0  0  0  0  3  0  0  0  0  0  0
   26.5320  -32.8090  -13.8450 C   0  0  0  0  0  3  0  0  0  0  0  0
   26.7480  -31.4740  -14.2200 C   0  0  0  0  0  0  0  0  0  0  0  0
   28.2800  -30.7210  -13.9940 Cl  0  0  0  0  0  0  0  0  0  0  0  0
   25.7070  -30.7370  -14.7910 C   0  0  0  0  0  3  0  0  0  0  0  0
   24.4240  -31.2980  -14.9370 C   0  0  0  0  0  3  0  0  0  0  0  0
   24.9270  -23.6150  -15.1730 C   0  0  0  0  0  3  0  0  0  0  0  0
   21.7860  -24.0080  -12.8240 C   0  0  0  0  0  3  0  0  0  0  0  0
   21.3260  -22.8190  -11.9670 C   0  0  0  0  0  2  0  0  0  0  0  0
   22.5940  -22.0370  -11.7000 C   0  0  0  0  0  3  0  0  0  0  0  0
   23.4810  -22.2900  -12.9190 C   0  0  0  0  0  2  0  0  0  0  0  0
   22.9980  -23.5340  -13.5250 N   0  0  0  0  0  0  0  0  0  0  0  0
   23.6460  -24.2160  -14.5030 C   0  0  0  0  0  0  0  0  0  0  0  0
   23.2680  -25.3370  -14.8580 O   0  0  0  0  0  0  0  0  0  0  0  0
   19.8290  -25.4120  -13.2110 N   0  0  0  0  0  0  0  0  0  0  0  0
   20.6260  -24.4690  -13.7220 C   0  0  0  0  0  0  0  0  0  0  0  0
   20.4270  -23.9390  -14.8180 O   0  0  0  0  0  0  0  0  0  0  0  0
   20.0750  -25.8040  -12.3120 H   0  0  0  0  0  0  0  0  0  0  0  0
   18.5690  -25.8540  -13.7950 C   0  0  0  0  0  2  0  0  0  0  0  0
   15.2100  -23.2920  -12.7420 C   0  0  0  0  0  0  0  0  0  0  0  0
   16.2240  -23.5560  -11.7970 C   0  0  0  0  0  3  0  0  0  0  0  0
   17.3110  -24.3800  -12.1350 C   0  0  0  0  0  3  0  0  0  0  0  0
   15.2990  -23.8590  -14.0310 C   0  0  0  0  0  3  0  0  0  0  0  0
   16.3890  -24.6830  -14.3690 C   0  0  0  0  0  3  0  0  0  0  0  0
   17.4000  -24.9490  -13.4240 C   0  0  0  0  0  0  0  0  0  0  0  0
   12.1000  -23.7000  -13.4970 C   0  0  0  0  0  1  0  0  0  0  0  0
   12.7460  -22.6160  -12.6570 C   0  0  0  0  0  0  0  0  0  0  0  0
   11.9230  -21.6810  -12.0650 N   0  0  0  0  0  0  0  0  0  0  0  0
   12.5420  -20.7950  -11.0850 C   0  0  0  0  0  2  0  0  0  0  0  0
   14.3160  -21.0700  -11.3410 S   0  0  0  0  0  0  0  0  0  0  0  0
   14.0420  -22.4910  -12.3380 C   0  0  0  0  0  0  0  0  0  0  0  0
   10.9090  -21.7150  -12.1230 H   0  0  0  0  0  0  0  0  0  0  0  0
   23.2470  -22.5360  -10.5420 O   0  0  0  0  0  0  0  0  0  0  0  0
   23.4460  -23.4570  -10.6820 H   0  0  0  0  0  0  0  0  0  0  0  0
   24.6270  -22.7180  -16.4220 C   0  0  1  0  0  0  0  0  0  0  0  0
   25.9470  -22.0550  -16.8830 C   0  0  0  0  0  1  0  0  0  0  0  0
   24.0420  -23.5100  -17.6200 C   0  0  0  0  0  1  0  0  0  0  0  0
   23.6440  -21.5820  -16.0740 C   0  0  0  0  0  1  0  0  0  0  0  0
  1 46  1  0
  1  2  1  0
  2  3  2  0
  4  7  1  0
  4  6  2  0
  5  4  1  0
  6  9  1  0
  6 10  1  0
  7  2  1  0
  7 11  1  0
  8  1  1  0
 12 14  1  0
 12 15  1  0
 12  5  1  0
 13 12  1  0
 17 16  1  0
 17 20  1  0
 17 15  1  0
 18 19  2  0
 20 21  1  0
 20 18  1  0
 22 18  1  0
 23 22  1  0
 23 24  1  0
 24 38  2  0
 25 23  1  0
 25 30  1  0
 26 27  1  0
 26 25  2  0
 27 28  2  0
 28 30  1  0
 28 29  1  0
 30 31  1  0
 31 37  2  0
 31 32  1  0
 32 33  1  0
 33 34  1  0
 35 36  1  0
 35 33  2  0
 37 35  1  0
 38 39  1  0
 38 37  1  0
 39 40  1  0
 40 41  2  0
 42 43  1  0
 42 41  1  0
 44 42  2  0
 45 44  1  0
 45 39  2  0
 46 52  1  0
 47 55  1  0
 47 48  1  0
 48 49  1  0
 49 72  1  0
 50 49  1  0
 51 50  1  0
 51 47  1  0
 52 51  1  0
 53 52  2  0
 54 57  1  0
 55 54  1  0
 56 55  2  0
 58 64  1  0
 58 54  1  0
 59 70  1  0
 59 60  1  0
 61 60  2  0
 62 59  2  0
 63 62  1  0
 63 64  2  0
 64 61  1  0
 65 66  1  0
 66 70  2  0
 66 67  1  0
 67 68  1  0
 69 68  1  0
 70 69  1  0
 71 67  1  0
 73 72  1  0
 74 77  1  1
 74 46  1  0
 75 74  1  0
 76 74  1  0
M  ISO  4   2 101   7 101  18 100  20 100
M  END
>  <TORSDO>  (47) 
F 15

>  <SCORE>  (47) 
-10.917

>  <name>  (47) 
46

>  <ligand_id>  (47) 
46

>  <original_smiles>  (47) 
[H]OC1([H])C([H])([H])N(C(=O)C([H])(N([H])C(=O)N([H])C(=N[N+]([H])([H])C([H])([H])C([H])(N([H])C(=O)C([H])([H])C2([H])N=C(c3c([H])c([H])c(Cl)c([H])c3[H])c3c(sc(C([H])([H])[H])c3C([H])([H])[H])-n3c(C([H])([H])[H])nnc32)C([H])([H])[H])N([H])[H])C(C([H])([H])[H])(C([H])([H])[H])C([H])([H])[H])C([H])(C(=O)N([H])C([H])([H])c2c([H])c([H])c(C3=C(C([H])([H])[H])N([H])C([H])([H])S3)c([H])c2[H])C1([H])[H]

>  <smiles>  (47) 
[H]OC1([H])C([H])([H])N(C(=O)C([H])(N([H])C(=O)N([H])C(=N[N+]([H])([H])C([H])([H])C([H])(N([H])C(=O)C([H])([H])C2([H])N=C(c3c([H])c([H])c(Cl)c([H])c3[H])c3c(sc(C([H])([H])[H])c3C([H])([H])[H])-n3c(C([H])([H])[H])nnc32)C([H])([H])[H])N([H])[H])C(C([H])([H])[H])(C([H])([H])[H])C([H])([H])[H])C([H])(C(=O)N([H])C([H])([H])c2c([H])c([H])c(C3=C(C([H])([H])[H])N([H])C([H])([H])S3)c([H])c2[H])C1([H])[H]

$$$$
47:0:0
     RDKit          3D

 81 88  0  0  1  0  0  0  0  0999 V2000
   25.4390  -28.1080  -16.9480 C   0  0  0  0  0  0  0  0  0  0  0  0
   26.5480  -28.5400  -17.5580 N   0  0  0  0  0  4  0  0  0  0  0  0
   25.4600  -27.5860  -15.7060 N   0  0  0  0  0  0  0  0  0  0  0  0
   26.4060  -28.8650  -18.5040 H   0  0  0  0  0  0  0  0  0  0  0  0
   27.4880  -28.4510  -17.2190 H   0  0  0  0  0  0  0  0  0  0  0  0
   24.5920  -27.2090  -15.3400 H   0  0  0  0  0  0  0  0  0  0  0  0
   22.9740  -28.6420  -17.1550 C   0  0  0  0  0  3  0  0  0  0  0  0
   24.2120  -28.2440  -17.7330 C   0  0  0  0  0  0  0  0  0  0  0  0
   22.1510  -28.8250  -18.2330 C   0  0  0  0  0  0  0  0  0  0  0  0
   24.1550  -28.1630  -19.0510 N   0  0  0  0  0  0  0  0  0  0  0  0
   22.8900  -28.5170  -19.3650 N   0  0  0  0  0  0  0  0  0  0  0  0
   22.4740  -27.1410  -21.3710 C   0  0  0  0  0  1  0  0  0  0  0  0
   22.5180  -28.5570  -20.7720 C   0  0  0  0  0  2  0  0  0  0  0  0
   20.7460  -29.3510  -18.2780 C   0  0  0  0  0  2  0  0  0  0  0  0
   20.6410  -31.5700  -17.1850 C   0  0  0  0  0  0  0  0  0  0  0  0
   20.3110  -31.0850  -16.1020 O   0  0  0  0  0  0  0  0  0  0  0  0
   20.7570  -30.8140  -18.2790 N   0  0  0  0  0  0  0  0  0  0  0  0
   20.9970  -31.2670  -19.1500 H   0  0  0  0  0  0  0  0  0  0  0  0
   20.9410  -33.0730  -17.3110 C   0  0  0  0  0  2  0  0  0  0  0  0
   21.4310  -33.7390  -15.9950 C   0  0  0  0  0  3  0  0  0  0  0  0
   22.7610  -33.2280  -15.6570 N   0  0  0  0  0  0  0  0  0  0  0  0
   21.4700  -35.2570  -16.0390 C   0  0  0  0  0  0  0  0  0  0  0  0
   21.2720  -36.0320  -17.1140 N   0  0  0  0  0  0  0  0  0  0  0  0
   21.4820  -37.3280  -16.6870 N   0  0  0  0  0  0  0  0  0  0  0  0
   21.8010  -37.2370  -15.3920 C   0  0  0  0  0  0  0  0  0  0  0  0
   22.1740  -38.4190  -14.5510 C   0  0  0  0  0  1  0  0  0  0  0  0
   21.7810  -35.9670  -14.9360 N   0  0  0  0  0  0  0  0  0  0  0  0
   22.0110  -35.4510  -13.6450 C   0  0  0  0  0  0  0  0  0  0  0  0
   21.4690  -36.1710  -12.1630 S   0  0  0  0  0  0  0  0  0  0  0  0
   22.0800  -34.8300  -11.2350 C   0  0  0  0  0  0  0  0  0  0  0  0
   21.9130  -34.8310   -9.7500 C   0  0  0  0  0  1  0  0  0  0  0  0
   22.6550  -33.8690  -12.0350 C   0  0  0  0  0  0  0  0  0  0  0  0
   23.1990  -32.5740  -11.4770 C   0  0  0  0  0  1  0  0  0  0  0  0
   22.6480  -34.2460  -13.4240 C   0  0  0  0  0  0  0  0  0  0  0  0
   23.2880  -33.4380  -14.5090 C   0  0  0  0  0  0  0  0  0  0  0  0
   24.6240  -32.8620  -14.2580 C   0  0  0  0  0  0  0  0  0  0  0  0
   25.6090  -33.6250  -13.5940 C   0  0  0  0  0  3  0  0  0  0  0  0
   26.8740  -33.0680  -13.3210 C   0  0  0  0  0  3  0  0  0  0  0  0
   27.1680  -31.7670  -13.7590 C   0  0  0  0  0  0  0  0  0  0  0  0
   28.7120  -31.0590  -13.4380 Cl  0  0  0  0  0  0  0  0  0  0  0  0
   26.2120  -31.0500  -14.4920 C   0  0  0  0  0  3  0  0  0  0  0  0
   24.9220  -31.5620  -14.7010 C   0  0  0  0  0  3  0  0  0  0  0  0
   26.6470  -27.5120  -14.8260 C   0  0  0  0  0  2  0  0  0  0  0  0
   26.1400  -24.6900  -15.5080 N   0  0  0  0  0  0  0  0  0  0  0  0
   26.9340  -25.0620  -14.5130 C   0  0  0  0  0  0  0  0  0  0  0  0
   27.4550  -24.2800  -13.7230 O   0  0  0  0  0  0  0  0  0  0  0  0
   26.7030  -26.2890  -14.0720 N   0  0  0  0  0  0  0  0  0  0  0  0
   26.2900  -25.0680  -16.4370 H   0  0  0  0  0  0  0  0  0  0  0  0
   26.9890  -26.4300  -13.1120 H   0  0  0  0  0  0  0  0  0  0  0  0
   25.1200  -23.6440  -15.3370 C   0  0  0  0  0  3  0  0  0  0  0  0
   22.0280  -24.0050  -12.8960 C   0  0  0  0  0  3  0  0  0  0  0  0
   21.5710  -22.8030  -12.0580 C   0  0  0  0  0  2  0  0  0  0  0  0
   22.8320  -21.9950  -11.8340 C   0  0  0  0  0  3  0  0  0  0  0  0
   23.6980  -22.2690  -13.0680 C   0  0  0  0  0  2  0  0  0  0  0  0
   23.2180  -23.5350  -13.6410 N   0  0  0  0  0  0  0  0  0  0  0  0
   23.8580  -24.2460  -14.6140 C   0  0  0  0  0  0  0  0  0  0  0  0
   23.5040  -25.3840  -14.9250 O   0  0  0  0  0  0  0  0  0  0  0  0
   20.0640  -25.4110  -13.1860 N   0  0  0  0  0  0  0  0  0  0  0  0
   20.8470  -24.4890  -13.7480 C   0  0  0  0  0  0  0  0  0  0  0  0
   20.6190  -23.9890  -14.8520 O   0  0  0  0  0  0  0  0  0  0  0  0
   20.3410  -25.7780  -12.2830 H   0  0  0  0  0  0  0  0  0  0  0  0
   18.7930  -25.8750  -13.7170 C   0  0  0  0  0  2  0  0  0  0  0  0
   15.4410  -23.2970  -12.6620 C   0  0  0  0  0  0  0  0  0  0  0  0
   16.4840  -23.5160  -11.7380 C   0  0  0  0  0  3  0  0  0  0  0  0
   17.5720  -24.3450  -12.0730 C   0  0  0  0  0  3  0  0  0  0  0  0
   15.4990  -23.9130  -13.9280 C   0  0  0  0  0  3  0  0  0  0  0  0
   16.5850  -24.7420  -14.2660 C   0  0  0  0  0  3  0  0  0  0  0  0
   17.6250  -24.9670  -13.3410 C   0  0  0  0  0  0  0  0  0  0  0  0
   12.3060  -23.7700  -13.2810 C   0  0  0  0  0  1  0  0  0  0  0  0
   12.9700  -22.6380  -12.5220 C   0  0  0  0  0  0  0  0  0  0  0  0
   12.1590  -21.6810  -11.9470 N   0  0  0  0  0  0  0  0  0  0  0  0
   12.8060  -20.7350  -11.0460 C   0  0  0  0  0  2  0  0  0  0  0  0
   14.5690  -21.0130  -11.3460 S   0  0  0  0  0  0  0  0  0  0  0  0
   14.2770  -22.4860  -12.2600 C   0  0  0  0  0  0  0  0  0  0  0  0
   11.1460  -21.7290  -11.9640 H   0  0  0  0  0  0  0  0  0  0  0  0
   23.5100  -22.4590  -10.6770 O   0  0  0  0  0  0  0  0  0  0  0  0
   23.6610  -23.3940  -10.7740 H   0  0  0  0  0  0  0  0  0  0  0  0
   24.7880  -23.0050  -16.7260 C   0  0  1  0  0  0  0  0  0  0  0  0
   26.0710  -22.3420  -17.2810 C   0  0  0  0  0  1  0  0  0  0  0  0
   24.2800  -24.0270  -17.7700 C   0  0  0  0  0  1  0  0  0  0  0  0
   23.7330  -21.8860  -16.5930 C   0  0  0  0  0  1  0  0  0  0  0  0
  1  3  1  0
  2  5  1  0
  2  1  2  0
  3  6  1  0
  3 43  1  0
  4  2  1  0
  8  7  1  0
  8  1  1  0
  9  7  2  0
 10  8  2  0
 11 10  1  0
 11  9  1  0
 12 13  1  0
 13 11  1  0
 14  9  1  0
 15 16  2  0
 17 14  1  0
 17 15  1  0
 18 17  1  0
 19 15  1  0
 20 19  1  0
 20 21  1  0
 21 35  2  0
 22 20  1  0
 22 27  1  0
 23 24  1  0
 23 22  2  0
 24 25  2  0
 25 27  1  0
 25 26  1  0
 27 28  1  0
 28 34  2  0
 28 29  1  0
 29 30  1  0
 30 31  1  0
 32 33  1  0
 32 30  2  0
 34 32  1  0
 35 36  1  0
 35 34  1  0
 36 37  1  0
 37 38  2  0
 39 40  1  0
 39 38  1  0
 41 39  2  0
 42 41  1  0
 42 36  2  0
 43 47  1  0
 44 50  1  0
 44 45  1  0
 45 47  1  0
 45 46  2  0
 47 49  1  0
 48 44  1  0
 50 56  1  0
 51 59  1  0
 51 52  1  0
 52 53  1  0
 53 76  1  0
 54 53  1  0
 55 54  1  0
 55 51  1  0
 56 55  1  0
 57 56  2  0
 58 61  1  0
 59 58  1  0
 60 59  2  0
 62 68  1  0
 62 58  1  0
 63 74  1  0
 63 64  1  0
 65 64  2  0
 66 63  2  0
 67 66  1  0
 67 68  2  0
 68 65  1  0
 69 70  1  0
 70 74  2  0
 70 71  1  0
 71 72  1  0
 73 72  1  0
 74 73  1  0
 75 71  1  0
 77 76  1  0
 78 81  1  1
 78 50  1  0
 79 78  1  0
 80 78  1  0
M  ISO  4  15 100  17 100  45 101  47 101
M  END
>  <TORSDO>  (48) 
F 17

>  <SCORE>  (48) 
-13.668

>  <name>  (48) 
47

>  <ligand_id>  (48) 
47

>  <original_smiles>  (48) 
[H]OC1([H])C([H])([H])N(C(=O)C([H])(N([H])C(=O)N([H])C([H])([H])[N+]([H])=C(c2nn(C([H])([H])C([H])([H])[H])c(C([H])([H])N([H])C(=O)C([H])([H])C3([H])N=C(c4c([H])c([H])c(Cl)c([H])c4[H])c4c(sc(C([H])([H])[H])c4C([H])([H])[H])-n4c(C([H])([H])[H])nnc43)c2[H])N([H])[H])C(C([H])([H])[H])(C([H])([H])[H])C([H])([H])[H])C([H])(C(=O)N([H])C([H])([H])c2c([H])c([H])c(C3=C(C([H])([H])[H])N([H])C([H])([H])S3)c([H])c2[H])C1([H])[H]

>  <smiles>  (48) 
[H]OC1([H])C([H])([H])N(C(=O)C([H])(N([H])C(=O)N([H])C([H])([H])[N+]([H])=C(c2nn(C([H])([H])C([H])([H])[H])c(C([H])([H])N([H])C(=O)C([H])([H])C3([H])N=C(c4c([H])c([H])c(Cl)c([H])c4[H])c4c(sc(C([H])([H])[H])c4C([H])([H])[H])-n4c(C([H])([H])[H])nnc43)c2[H])N([H])[H])C(C([H])([H])[H])(C([H])([H])[H])C([H])([H])[H])C([H])(C(=O)N([H])C([H])([H])c2c([H])c([H])c(C3=C(C([H])([H])[H])N([H])C([H])([H])S3)c([H])c2[H])C1([H])[H]

$$$$
48:0:0
     RDKit          3D

 81 88  0  0  1  0  0  0  0  0999 V2000
   23.1500  -22.8900  -15.9450 C   0  0  0  0  0  2  0  0  0  0  0  0
   22.2330  -25.4180  -16.9690 C   0  0  0  0  0  0  0  0  0  0  0  0
   23.1730  -26.3920  -17.0230 N   0  0  0  0  0  4  0  0  0  0  0  0
   24.4230  -22.2470  -15.3450 N   0  0  0  0  0  0  0  0  0  0  0  0
   22.2570  -23.9950  -16.5610 N   0  0  0  0  0  0  0  0  0  0  0  0
   23.0990  -27.1230  -17.7190 H   0  0  0  0  0  0  0  0  0  0  0  0
   23.6890  -26.6360  -16.1850 H   0  0  0  0  0  0  0  0  0  0  0  0
   24.3680  -21.2340  -15.3900 H   0  0  0  0  0  0  0  0  0  0  0  0
   21.3070  -23.6490  -16.5820 H   0  0  0  0  0  0  0  0  0  0  0  0
   20.5770  -31.4050  -17.2220 C   0  0  0  0  0  0  0  0  0  0  0  0
   20.2160  -31.1120  -16.0910 O   0  0  0  0  0  0  0  0  0  0  0  0
   21.1670  -26.3470  -17.4980 C   0  0  0  0  0  0  0  0  0  0  0  0
   21.0290  -26.7340  -18.8370 C   0  0  0  0  0  0  0  0  0  0  0  0
   20.6890  -28.8970  -17.9690 C   0  0  0  0  0  0  0  0  0  0  0  0
   21.4830  -25.9870  -20.0610 C   0  0  0  0  0  1  0  0  0  0  0  0
   20.7500  -28.1140  -19.0580 N   0  0  0  0  0  0  0  0  0  0  0  0
   20.6820  -30.3770  -18.1340 N   0  0  0  0  0  0  0  0  0  0  0  0
   20.7670  -27.8310  -16.5180 S   0  0  0  0  0  0  0  0  0  0  0  0
   20.7890  -30.6710  -19.0920 H   0  0  0  0  0  0  0  0  0  0  0  0
   20.8190  -32.9590  -17.4940 C   0  0  0  0  0  2  0  0  0  0  0  0
   21.3480  -33.7900  -16.2260 C   0  0  0  0  0  3  0  0  0  0  0  0
   22.6760  -33.2910  -15.8790 N   0  0  0  0  0  0  0  0  0  0  0  0
   21.4110  -35.3380  -16.2670 C   0  0  0  0  0  0  0  0  0  0  0  0
   21.2400  -36.1320  -17.3330 N   0  0  0  0  0  0  0  0  0  0  0  0
   21.4970  -37.4280  -16.8990 N   0  0  0  0  0  0  0  0  0  0  0  0
   21.8160  -37.3240  -15.6070 C   0  0  0  0  0  0  0  0  0  0  0  0
   22.2440  -38.4930  -14.7650 C   0  0  0  0  0  1  0  0  0  0  0  0
   21.7500  -36.0510  -15.1580 N   0  0  0  0  0  0  0  0  0  0  0  0
   21.9790  -35.5440  -13.8600 C   0  0  0  0  0  0  0  0  0  0  0  0
   21.4760  -36.2860  -12.3690 S   0  0  0  0  0  0  0  0  0  0  0  0
   22.0570  -34.9310  -11.4430 C   0  0  0  0  0  0  0  0  0  0  0  0
   21.8970  -34.9300   -9.9530 C   0  0  0  0  0  1  0  0  0  0  0  0
   22.5980  -33.9530  -12.2480 C   0  0  0  0  0  0  0  0  0  0  0  0
   23.1070  -32.6410  -11.7070 C   0  0  0  0  0  1  0  0  0  0  0  0
   22.5920  -34.3330  -13.6410 C   0  0  0  0  0  0  0  0  0  0  0  0
   23.2070  -33.5010  -14.7310 C   0  0  0  0  0  0  0  0  0  0  0  0
   24.5300  -32.8880  -14.4830 C   0  0  0  0  0  0  0  0  0  0  0  0
   25.5340  -33.6060  -13.7980 C   0  0  0  0  0  3  0  0  0  0  0  0
   26.7760  -33.0000  -13.5360 C   0  0  0  0  0  3  0  0  0  0  0  0
   27.0190  -31.6800  -13.9640 C   0  0  0  0  0  0  0  0  0  0  0  0
   28.5420  -30.9380  -13.6450 Cl  0  0  0  0  0  0  0  0  0  0  0  0
   26.0250  -30.9680  -14.6580 C   0  0  0  0  0  3  0  0  0  0  0  0
   24.7820  -31.5700  -14.9210 C   0  0  0  0  0  3  0  0  0  0  0  0
   26.0510  -24.9100  -15.2450 N   0  0  0  0  0  4  0  0  0  0  0  0
   26.4580  -23.9740  -14.4790 C   0  0  0  0  0  0  0  0  0  0  0  0
   27.2930  -24.2730  -13.6260 O   0  0  0  0  0  0  0  0  0  0  0  0
   25.8310  -22.7010  -14.6730 N   0  0  0  0  0  0  0  0  0  0  0  0
   26.4380  -25.8400  -15.1350 H   0  0  0  0  0  0  0  0  0  0  0  0
   26.1600  -21.9040  -14.1420 H   0  0  0  0  0  0  0  0  0  0  0  0
   24.8060  -24.6770  -15.7740 C   0  0  0  0  0  0  0  0  0  0  0  0
   21.8290  -24.1220  -12.8710 C   0  0  0  0  0  3  0  0  0  0  0  0
   21.4090  -22.8270  -12.1400 C   0  0  0  0  0  2  0  0  0  0  0  0
   22.6870  -22.1420  -11.7850 C   0  0  0  0  0  3  0  0  0  0  0  0
   23.5820  -22.5830  -12.8920 C   0  0  0  0  0  2  0  0  0  0  0  0
   23.1220  -23.8650  -13.5610 N   0  0  0  0  0  0  0  0  0  0  0  0
   23.6990  -24.8020  -14.4770 C   0  0  0  0  0  0  0  0  0  0  0  0
   23.1970  -25.9100  -14.4930 O   0  0  0  0  0  0  0  0  0  0  0  0
   19.8630  -25.4950  -13.2550 N   0  0  0  0  0  0  0  0  0  0  0  0
   20.6290  -24.5280  -13.7420 C   0  0  0  0  0  0  0  0  0  0  0  0
   20.3510  -23.9250  -14.7780 O   0  0  0  0  0  0  0  0  0  0  0  0
   20.1510  -25.9470  -12.3970 H   0  0  0  0  0  0  0  0  0  0  0  0
   18.5740  -25.8900  -13.8030 C   0  0  0  0  0  2  0  0  0  0  0  0
   15.2950  -23.2570  -12.6910 C   0  0  0  0  0  0  0  0  0  0  0  0
   16.3440  -23.5010  -11.7820 C   0  0  0  0  0  3  0  0  0  0  0  0
   17.4140  -24.3390  -12.1440 C   0  0  0  0  0  3  0  0  0  0  0  0
   15.3300  -23.8520  -13.9700 C   0  0  0  0  0  3  0  0  0  0  0  0
   16.4010  -24.6890  -14.3310 C   0  0  0  0  0  3  0  0  0  0  0  0
   17.4460  -24.9420  -13.4190 C   0  0  0  0  0  0  0  0  0  0  0  0
   12.1620  -23.7050  -13.2980 C   0  0  0  0  0  1  0  0  0  0  0  0
   12.8350  -22.5920  -12.5180 C   0  0  0  0  0  0  0  0  0  0  0  0
   12.0350  -21.6460  -11.9110 N   0  0  0  0  0  0  0  0  0  0  0  0
   12.6930  -20.7350  -10.9830 C   0  0  0  0  0  2  0  0  0  0  0  0
   14.4540  -21.0080  -11.3100 S   0  0  0  0  0  0  0  0  0  0  0  0
   14.1420  -22.4500  -12.2600 C   0  0  0  0  0  0  0  0  0  0  0  0
   11.0190  -21.6980  -11.9110 H   0  0  0  0  0  0  0  0  0  0  0  0
   23.2920  -22.5730  -10.5930 O   0  0  0  0  0  0  0  0  0  0  0  0
   23.3700  -23.5210  -10.6170 H   0  0  0  0  0  0  0  0  0  0  0  0
   24.9180  -23.7490  -17.2910 C   0  0  1  0  0  0  0  0  0  0  0  0
   26.3300  -23.1140  -17.4640 C   0  0  0  0  0  1  0  0  0  0  0  0
   24.7650  -24.6630  -18.4880 C   0  0  0  0  0  1  0  0  0  0  0  0
   24.0420  -22.5000  -17.9010 C   0  0  0  0  0  1  0  0  0  0  0  0
  1  4  1  0
  2  5  1  0
  3  2  2  0
  3  7  1  0
  4 47  1  0
  5  1  1  0
  6  3  1  0
  8  4  1  0
  9  5  1  0
 10 11  2  0
 12  2  1  0
 12 18  1  0
 13 12  2  0
 14 18  1  0
 15 13  1  0
 16 13  1  0
 16 14  2  0
 17 14  1  0
 17 10  1  0
 19 17  1  0
 20 10  1  0
 21 20  1  0
 21 22  1  0
 22 36  2  0
 23 21  1  0
 23 28  1  0
 24 25  1  0
 24 23  2  0
 25 26  2  0
 26 28  1  0
 26 27  1  0
 28 29  1  0
 29 35  2  0
 29 30  1  0
 30 31  1  0
 31 32  1  0
 33 34  1  0
 33 31  2  0
 35 33  1  0
 36 37  1  0
 36 35  1  0
 37 38  1  0
 38 39  2  0
 40 41  1  0
 40 39  1  0
 42 40  2  0
 43 42  1  0
 43 37  2  0
 44 48  1  0
 44 45  1  0
 45 46  2  0
 47 45  1  0
 47 49  1  0
 50 44  2  3
 50 56  1  0
 51 59  1  0
 51 52  1  0
 52 53  1  0
 53 76  1  0
 54 53  1  0
 55 54  1  0
 55 51  1  0
 56 55  1  0
 57 56  2  0
 58 61  1  0
 59 58  1  0
 60 59  2  0
 62 68  1  0
 62 58  1  0
 63 74  1  0
 63 64  1  0
 65 64  2  0
 66 63  2  0
 67 66  1  0
 67 68  2  0
 68 65  1  0
 69 70  1  0
 70 74  2  0
 70 71  1  0
 71 75  1  0
 71 72  1  0
 73 72  1  0
 74 73  1  0
 77 76  1  0
 78 50  1  0
 78 79  1  6
 80 78  1  0
 81 78  1  0
M  ISO  4  10 100  17 100  45 101  47 101
M  END
>  <TORSDO>  (49) 
F 13

>  <SCORE>  (49) 
-16.486

>  <name>  (49) 
48

>  <ligand_id>  (49) 
48

>  <original_smiles>  (49) 
[H]OC1([H])C([H])([H])N(C(=O)C([H])(N([H])C(=O)N([H])[N+]([H])=C([H])N([H])C(c2sc(N([H])C(=O)C([H])([H])C3([H])N=C(c4c([H])c([H])c(Cl)c([H])c4[H])c4c(sc(C([H])([H])[H])c4C([H])([H])[H])-n4c(C([H])([H])[H])nnc43)nc2C([H])([H])[H])=[N+]([H])[H])C(C([H])([H])[H])(C([H])([H])[H])C([H])([H])[H])C([H])(C(=O)N([H])C([H])([H])c2c([H])c([H])c(C3=C(C([H])([H])[H])N([H])C([H])([H])S3)c([H])c2[H])C1([H])[H]

>  <smiles>  (49) 
[H]OC1([H])C([H])([H])N(C(=O)C([H])(N([H])C(=O)N([H])[N+]([H])=C([H])N([H])C(c2sc(N([H])C(=O)C([H])([H])C3([H])N=C(c4c([H])c([H])c(Cl)c([H])c4[H])c4c(sc(C([H])([H])[H])c4C([H])([H])[H])-n4c(C([H])([H])[H])nnc43)nc2C([H])([H])[H])=[N+]([H])[H])C(C([H])([H])[H])(C([H])([H])[H])C([H])([H])[H])C([H])(C(=O)N([H])C([H])([H])c2c([H])c([H])c(C3=C(C([H])([H])[H])N([H])C([H])([H])S3)c([H])c2[H])C1([H])[H]

$$$$
49:0:0
     RDKit          3D

 81 87  0  0  1  0  0  0  0  0999 V2000
   25.9070  -24.7760  -15.4530 N   0  0  0  0  0  0  0  0  0  0  0  0
   26.8280  -25.2040  -14.5950 C   0  0  0  0  0  0  0  0  0  0  0  0
   27.1170  -24.6150  -13.5450 O   0  0  0  0  0  0  0  0  0  0  0  0
   27.4010  -27.2690  -16.0030 C   0  0  0  0  0  0  0  0  0  0  0  0
   28.5170  -27.7870  -16.5320 N   0  0  0  0  0  4  0  0  0  0  0  0
   27.6190  -26.3140  -15.0490 N   0  0  0  0  0  0  0  0  0  0  0  0
   26.2450  -27.7990  -16.4970 N   0  0  0  0  0  0  0  0  0  0  0  0
   25.8230  -25.2620  -16.3320 H   0  0  0  0  0  0  0  0  0  0  0  0
   29.4140  -27.3390  -16.3820 H   0  0  0  0  0  0  0  0  0  0  0  0
   28.5090  -28.4980  -17.2500 H   0  0  0  0  0  0  0  0  0  0  0  0
   28.4540  -26.5200  -14.5250 H   0  0  0  0  0  0  0  0  0  0  0  0
   26.3600  -28.5890  -17.1120 H   0  0  0  0  0  0  0  0  0  0  0  0
   24.9590  -23.6790  -15.2660 C   0  0  0  0  0  3  0  0  0  0  0  0
   21.8720  -23.9890  -12.8360 C   0  0  0  0  0  3  0  0  0  0  0  0
   21.4400  -22.7870  -11.9850 C   0  0  0  0  0  2  0  0  0  0  0  0
   22.7190  -22.0030  -11.7620 C   0  0  0  0  0  3  0  0  0  0  0  0
   23.5770  -22.2840  -12.9970 C   0  0  0  0  0  2  0  0  0  0  0  0
   23.0710  -23.5340  -13.5700 N   0  0  0  0  0  0  0  0  0  0  0  0
   23.6940  -24.2440  -14.5430 C   0  0  0  0  0  0  0  0  0  0  0  0
   23.2990  -25.3720  -14.8450 O   0  0  0  0  0  0  0  0  0  0  0  0
   19.8880  -25.3760  -13.1570 N   0  0  0  0  0  0  0  0  0  0  0  0
   20.6850  -24.4510  -13.7010 C   0  0  0  0  0  0  0  0  0  0  0  0
   20.4740  -23.9410  -14.8050 O   0  0  0  0  0  0  0  0  0  0  0  0
   20.1520  -25.7610  -12.2590 H   0  0  0  0  0  0  0  0  0  0  0  0
   18.6050  -25.8080  -13.7000 C   0  0  0  0  0  2  0  0  0  0  0  0
   15.3140  -23.1640  -12.6380 C   0  0  0  0  0  0  0  0  0  0  0  0
   16.3580  -23.3990  -11.7180 C   0  0  0  0  0  3  0  0  0  0  0  0
   17.4250  -24.2480  -12.0560 C   0  0  0  0  0  3  0  0  0  0  0  0
   15.3520  -23.7850  -13.9030 C   0  0  0  0  0  3  0  0  0  0  0  0
   16.4200  -24.6360  -14.2430 C   0  0  0  0  0  3  0  0  0  0  0  0
   17.4620  -24.8740  -13.3220 C   0  0  0  0  0  0  0  0  0  0  0  0
   12.1690  -23.6010  -13.2160 C   0  0  0  0  0  1  0  0  0  0  0  0
   12.8580  -22.4740  -12.4780 C   0  0  0  0  0  0  0  0  0  0  0  0
   12.0660  -21.5000  -11.9040 N   0  0  0  0  0  0  0  0  0  0  0  0
   12.7350  -20.5550  -11.0160 C   0  0  0  0  0  2  0  0  0  0  0  0
   14.4950  -20.8530  -11.3390 S   0  0  0  0  0  0  0  0  0  0  0  0
   14.1690  -22.3340  -12.2280 C   0  0  0  0  0  0  0  0  0  0  0  0
   11.0520  -21.5340  -11.9090 H   0  0  0  0  0  0  0  0  0  0  0  0
   23.3960  -22.4820  -10.6130 O   0  0  0  0  0  0  0  0  0  0  0  0
   23.5800  -23.4090  -10.7320 H   0  0  0  0  0  0  0  0  0  0  0  0
   24.6700  -23.0780  -16.6910 C   0  0  1  0  0  0  0  0  0  0  0  0
   25.9550  -22.3890  -17.2180 C   0  0  0  0  0  1  0  0  0  0  0  0
   24.2400  -24.1430  -17.7290 C   0  0  0  0  0  1  0  0  0  0  0  0
   23.5690  -21.9950  -16.6350 C   0  0  0  0  0  1  0  0  0  0  0  0
   24.8180  -27.6290  -16.1630 C   0  0  0  0  0  2  0  0  0  0  0  0
   23.8160  -28.2560  -17.1440 C   0  0  0  0  0  0  0  0  0  0  0  0
   22.9540  -29.1160  -16.7050 N   0  0  0  0  0  2  0  0  0  0  0  0
   23.9600  -27.7340  -18.4240 N   0  0  0  0  0  4  0  0  0  0  0  0
   24.6500  -27.0270  -18.6460 H   0  0  0  0  0  0  0  0  0  0  0  0
   23.5030  -27.9880  -19.2910 H   0  0  0  0  0  0  0  0  0  0  0  0
   21.9020  -29.4060  -17.6040 N   0  0  0  0  0  4  0  0  0  0  0  0
   21.0320  -29.2510  -17.1070 H   0  0  0  0  0  0  0  0  0  0  0  0
   21.9750  -28.7590  -18.3730 H   0  0  0  0  0  0  0  0  0  0  0  0
   20.9270  -31.4940  -17.3770 C   0  0  0  0  0  0  0  0  0  0  0  0
   20.1850  -30.9650  -16.5400 O   0  0  0  0  0  0  0  0  0  0  0  0
   21.8230  -30.8030  -18.1060 N   0  0  0  0  0  0  0  0  0  0  0  0
   22.5250  -31.1560  -18.7350 H   0  0  0  0  0  0  0  0  0  0  0  0
   20.9820  -33.0220  -17.5060 C   0  0  0  0  0  2  0  0  0  0  0  0
   21.4760  -33.6900  -16.1970 C   0  0  0  0  0  3  0  0  0  0  0  0
   22.8100  -33.1830  -15.8690 N   0  0  0  0  0  0  0  0  0  0  0  0
   21.5000  -35.2080  -16.2420 C   0  0  0  0  0  0  0  0  0  0  0  0
   21.3110  -35.9820  -17.3160 N   0  0  0  0  0  0  0  0  0  0  0  0
   21.5120  -37.2800  -16.8820 N   0  0  0  0  0  0  0  0  0  0  0  0
   21.8220  -37.1840  -15.5860 C   0  0  0  0  0  0  0  0  0  0  0  0
   22.1890  -38.3620  -14.7310 C   0  0  0  0  0  1  0  0  0  0  0  0
   21.8040  -35.9110  -15.1330 N   0  0  0  0  0  0  0  0  0  0  0  0
   22.0300  -35.3860  -13.8450 C   0  0  0  0  0  0  0  0  0  0  0  0
   21.4670  -36.0840  -12.3580 S   0  0  0  0  0  0  0  0  0  0  0  0
   22.0740  -34.7380  -11.4370 C   0  0  0  0  0  0  0  0  0  0  0  0
   21.8960  -34.7200   -9.9500 C   0  0  0  0  0  1  0  0  0  0  0  0
   22.6650  -33.7870  -12.2440 C   0  0  0  0  0  0  0  0  0  0  0  0
   23.2110  -32.4920  -11.6900 C   0  0  0  0  0  1  0  0  0  0  0  0
   22.6760  -34.1850  -13.6280 C   0  0  0  0  0  0  0  0  0  0  0  0
   23.3270  -33.3830  -14.7140 C   0  0  0  0  0  0  0  0  0  0  0  0
   24.6600  -32.7950  -14.4540 C   0  0  0  0  0  0  0  0  0  0  0  0
   25.6580  -33.5590  -13.8100 C   0  0  0  0  0  3  0  0  0  0  0  0
   26.9160  -32.9870  -13.5400 C   0  0  0  0  0  3  0  0  0  0  0  0
   27.1820  -31.6590  -13.9220 C   0  0  0  0  0  0  0  0  0  0  0  0
   28.7240  -30.9590  -13.6020 Cl  0  0  0  0  0  0  0  0  0  0  0  0
   26.1880  -30.8950  -14.5570 C   0  0  0  0  0  3  0  0  0  0  0  0
   24.9280  -31.4620  -14.8230 C   0  0  0  0  0  3  0  0  0  0  0  0
  1 13  1  0
  1  2  1  0
  2  3  2  0
  4  6  1  0
  5  9  1  0
  5  4  2  0
  6  2  1  0
  6 11  1  0
  7 45  1  0
  7  4  1  0
  8  1  1  0
 10  5  1  0
 12  7  1  0
 13 19  1  0
 14 22  1  0
 14 15  1  0
 15 16  1  0
 16 39  1  0
 17 16  1  0
 18 17  1  0
 18 14  1  0
 19 18  1  0
 20 19  2  0
 21 24  1  0
 22 21  1  0
 23 22  2  0
 25 31  1  0
 25 21  1  0
 26 37  1  0
 26 27  1  0
 28 27  2  0
 29 26  2  0
 30 29  1  0
 30 31  2  0
 31 28  1  0
 32 33  1  0
 33 37  2  0
 33 34  1  0
 34 35  1  0
 36 35  1  0
 37 36  1  0
 38 34  1  0
 40 39  1  0
 41 44  1  1
 41 13  1  0
 42 41  1  0
 43 41  1  0
 46 47  1  0
 46 45  1  0
 48 46  2  0
 49 48  1  0
 50 48  1  0
 51 52  1  0
 51 47  1  0
 53 51  1  0
 54 55  2  0
 56 51  1  0
 56 54  1  0
 57 56  1  0
 58 54  1  0
 59 58  1  0
 59 60  1  0
 60 74  2  0
 61 59  1  0
 61 66  1  0
 62 63  1  0
 62 61  2  0
 63 64  2  0
 64 66  1  0
 64 65  1  0
 66 67  1  0
 67 73  2  0
 67 68  1  0
 68 69  1  0
 69 70  1  0
 71 72  1  0
 71 69  2  0
 73 71  1  0
 74 75  1  0
 74 73  1  0
 75 76  1  0
 76 77  2  0
 78 79  1  0
 78 77  1  0
 80 78  2  0
 81 80  1  0
 81 75  2  0
M  ISO  4   2 101   6 101  54 100  56 100
M  END
>  <TORSDO>  (50) 
F 15

>  <SCORE>  (50) 
-14.517

>  <name>  (50) 
49

>  <ligand_id>  (50) 
49

>  <original_smiles>  (50) 
[H]OC1([H])C([H])([H])N(C(=O)C([H])(N([H])C(=O)N([H])C(N([H])[H])=[N+]([H])C([H])([H])C(=N[N+]([H])([H])N([H])C(=O)C([H])([H])C2([H])N=C(c3c([H])c([H])c(Cl)c([H])c3[H])c3c(sc(C([H])([H])[H])c3C([H])([H])[H])-n3c(C([H])([H])[H])nnc32)N([H])[H])C(C([H])([H])[H])(C([H])([H])[H])C([H])([H])[H])C([H])(C(=O)N([H])C([H])([H])c2c([H])c([H])c(C3=C(C([H])([H])[H])N([H])C([H])([H])S3)c([H])c2[H])C1([H])[H]

>  <smiles>  (50) 
[H]OC1([H])C([H])([H])N(C(=O)C([H])(N([H])C(=O)N([H])C(N([H])[H])=[N+]([H])C([H])([H])C(=N[N+]([H])([H])N([H])C(=O)C([H])([H])C2([H])N=C(c3c([H])c([H])c(Cl)c([H])c3[H])c3c(sc(C([H])([H])[H])c3C([H])([H])[H])-n3c(C([H])([H])[H])nnc32)N([H])[H])C(C([H])([H])[H])(C([H])([H])[H])C([H])([H])[H])C([H])(C(=O)N([H])C([H])([H])c2c([H])c([H])c(C3=C(C([H])([H])[H])N([H])C([H])([H])S3)c([H])c2[H])C1([H])[H]

$$$$
50:0:0
     RDKit          3D

 76 82  0  0  1  0  0  0  0  0999 V2000
   26.5400  -27.1850  -15.2330 C   0  0  0  0  0  0  0  0  0  0  0  0
   25.7750  -27.5780  -14.3420 O   0  0  0  0  0  0  0  0  0  0  0  0
   26.5510  -27.7570  -16.6850 C   0  0  0  0  0  0  0  0  0  0  0  0
   25.3690  -27.9740  -17.2930 N   0  0  0  0  0  0  0  0  0  0  0  0
   27.6120  -27.9850  -17.2680 O   0  0  0  0  0  0  0  0  0  0  0  0
   25.4260  -28.3740  -18.2210 H   0  0  0  0  0  0  0  0  0  0  0  0
   23.9760  -27.8640  -16.8330 C   0  0  0  0  0  2  0  0  0  0  0  0
   23.0800  -28.7980  -17.6650 C   0  0  0  0  0  0  0  0  0  0  0  0
   21.8450  -29.0540  -17.2130 N   0  0  0  0  0  0  0  0  0  0  0  0
   23.5120  -29.3100  -18.7040 O   0  0  0  0  0  0  0  0  0  0  0  0
   21.4560  -28.7320  -16.3350 H   0  0  0  0  0  0  0  0  0  0  0  0
   20.4510  -30.9410  -16.8960 C   0  0  0  0  0  0  0  0  0  0  0  0
   19.9970  -30.5120  -15.8310 O   0  0  0  0  0  0  0  0  0  0  0  0
   21.1320  -30.1550  -17.7410 N   0  0  0  0  0  0  0  0  0  0  0  0
   21.6040  -30.5120  -18.5650 H   0  0  0  0  0  0  0  0  0  0  0  0
   20.4270  -32.4430  -17.2080 C   0  0  0  0  0  2  0  0  0  0  0  0
   21.0320  -33.2770  -16.0430 C   0  0  0  0  0  3  0  0  0  0  0  0
   22.3870  -32.8030  -15.7490 N   0  0  0  0  0  0  0  0  0  0  0  0
   21.0640  -34.7760  -16.2890 C   0  0  0  0  0  0  0  0  0  0  0  0
   20.7920  -35.4050  -17.4380 N   0  0  0  0  0  0  0  0  0  0  0  0
   21.0430  -36.7430  -17.2010 N   0  0  0  0  0  0  0  0  0  0  0  0
   21.4580  -36.8160  -15.9330 C   0  0  0  0  0  0  0  0  0  0  0  0
   21.8990  -38.0930  -15.2820 C   0  0  0  0  0  1  0  0  0  0  0  0
   21.4640  -35.6160  -15.3140 N   0  0  0  0  0  0  0  0  0  0  0  0
   21.7910  -35.2680  -13.9870 C   0  0  0  0  0  0  0  0  0  0  0  0
   21.3620  -36.1770  -12.5730 S   0  0  0  0  0  0  0  0  0  0  0  0
   22.0400  -34.9580  -11.5290 C   0  0  0  0  0  0  0  0  0  0  0  0
   21.9900  -35.1470  -10.0470 C   0  0  0  0  0  1  0  0  0  0  0  0
   22.5540  -33.8950  -12.2410 C   0  0  0  0  0  0  0  0  0  0  0  0
   23.1370  -32.6790  -11.5690 C   0  0  0  0  0  1  0  0  0  0  0  0
   22.4440  -34.0990  -13.6630 C   0  0  0  0  0  0  0  0  0  0  0  0
   22.9980  -33.1490  -14.6790 C   0  0  0  0  0  0  0  0  0  0  0  0
   24.3480  -32.5930  -14.4530 C   0  0  0  0  0  0  0  0  0  0  0  0
   25.3880  -33.4190  -13.9700 C   0  0  0  0  0  3  0  0  0  0  0  0
   26.6680  -32.8830  -13.7250 C   0  0  0  0  0  3  0  0  0  0  0  0
   26.9120  -31.5230  -13.9700 C   0  0  0  0  0  0  0  0  0  0  0  0
   28.4630  -30.8330  -13.6730 Cl  0  0  0  0  0  0  0  0  0  0  0  0
   25.8800  -30.7160  -14.4660 C   0  0  0  0  0  3  0  0  0  0  0  0
   24.5980  -31.2310  -14.7060 C   0  0  0  0  0  3  0  0  0  0  0  0
   27.4310  -26.1540  -15.1200 O   0  0  0  0  0  0  0  0  0  0  0  0
   25.8780  -24.5720  -15.4380 N   0  0  0  0  0  0  0  0  0  0  0  0
   26.8970  -25.0180  -14.6170 C   0  0  0  0  0  0  0  0  0  0  0  0
   27.3210  -24.4260  -13.6200 O   0  0  0  0  0  0  0  0  0  0  0  0
   25.6970  -25.1250  -16.2590 H   0  0  0  0  0  0  0  0  0  0  0  0
   24.9260  -23.5090  -15.1930 C   0  0  0  0  0  3  0  0  0  0  0  0
   21.7930  -23.9120  -12.8540 C   0  0  0  0  0  3  0  0  0  0  0  0
   21.3030  -22.7030  -12.0390 C   0  0  0  0  0  2  0  0  0  0  0  0
   22.5520  -21.8840  -11.7940 C   0  0  0  0  0  3  0  0  0  0  0  0
   23.4470  -22.1600  -13.0000 C   0  0  0  0  0  2  0  0  0  0  0  0
   22.9960  -23.4360  -13.5670 N   0  0  0  0  0  0  0  0  0  0  0  0
   23.6710  -24.1370  -14.5120 C   0  0  0  0  0  0  0  0  0  0  0  0
   23.3430  -25.2880  -14.8270 O   0  0  0  0  0  0  0  0  0  0  0  0
   19.8670  -25.3630  -13.2050 N   0  0  0  0  0  0  0  0  0  0  0  0
   20.6480  -24.4210  -13.7430 C   0  0  0  0  0  0  0  0  0  0  0  0
   20.4440  -23.9300  -14.8560 O   0  0  0  0  0  0  0  0  0  0  0  0
   20.1180  -25.7220  -12.2930 H   0  0  0  0  0  0  0  0  0  0  0  0
   18.6180  -25.8460  -13.7780 C   0  0  0  0  0  2  0  0  0  0  0  0
   15.1890  -23.3730  -12.7390 C   0  0  0  0  0  0  0  0  0  0  0  0
   16.2120  -23.5990  -11.7950 C   0  0  0  0  0  3  0  0  0  0  0  0
   17.3220  -24.3950  -12.1270 C   0  0  0  0  0  3  0  0  0  0  0  0
   15.2930  -23.9480  -14.0240 C   0  0  0  0  0  3  0  0  0  0  0  0
   16.4050  -24.7440  -14.3560 C   0  0  0  0  0  3  0  0  0  0  0  0
   17.4260  -24.9720  -13.4120 C   0  0  0  0  0  0  0  0  0  0  0  0
   12.0920  -23.8730  -13.4940 C   0  0  0  0  0  1  0  0  0  0  0  0
   12.7070  -22.7660  -12.6600 C   0  0  0  0  0  0  0  0  0  0  0  0
   11.8570  -21.8510  -12.0730 N   0  0  0  0  0  0  0  0  0  0  0  0
   12.4500  -20.9430  -11.0980 C   0  0  0  0  0  2  0  0  0  0  0  0
   14.2310  -21.1680  -11.3520 S   0  0  0  0  0  0  0  0  0  0  0  0
   13.9990  -22.6030  -12.3410 C   0  0  0  0  0  0  0  0  0  0  0  0
   10.8450  -21.9160  -12.1320 H   0  0  0  0  0  0  0  0  0  0  0  0
   23.2110  -22.3290  -10.6180 O   0  0  0  0  0  0  0  0  0  0  0  0
   23.4280  -23.2490  -10.7230 H   0  0  0  0  0  0  0  0  0  0  0  0
   24.6360  -22.8570  -16.5890 C   0  0  1  0  0  0  0  0  0  0  0  0
   25.9340  -22.1880  -17.1050 C   0  0  0  0  0  1  0  0  0  0  0  0
   24.1610  -23.8720  -17.6600 C   0  0  0  0  0  1  0  0  0  0  0  0
   23.5750  -21.7460  -16.4730 C   0  0  0  0  0  1  0  0  0  0  0  0
  1 40  1  0
  1  2  2  0
  3  1  1  0
  4  7  1  0
  4  3  1  0
  5  3  2  0
  6  4  1  0
  8  9  1  0
  8  7  1  0
  9 11  1  0
 10  8  2  0
 12 13  2  0
 14  9  1  0
 14 12  1  0
 15 14  1  0
 16 12  1  0
 17 16  1  0
 17 18  1  0
 18 32  2  0
 19 17  1  0
 19 24  1  0
 20 21  1  0
 20 19  2  0
 21 22  2  0
 22 24  1  0
 22 23  1  0
 24 25  1  0
 25 31  2  0
 25 26  1  0
 26 27  1  0
 27 28  1  0
 29 30  1  0
 29 27  2  0
 31 29  1  0
 32 33  1  0
 32 31  1  0
 33 34  1  0
 34 35  2  0
 36 35  1  0
 36 37  1  0
 38 36  2  0
 39 38  1  0
 39 33  2  0
 40 42  1  0
 41 45  1  0
 41 42  1  0
 42 43  2  0
 44 41  1  0
 45 51  1  0
 46 54  1  0
 46 47  1  0
 47 48  1  0
 48 71  1  0
 49 48  1  0
 50 49  1  0
 50 46  1  0
 51 50  1  0
 52 51  2  0
 53 56  1  0
 54 53  1  0
 55 54  2  0
 57 63  1  0
 57 53  1  0
 58 69  1  0
 58 59  1  0
 60 59  2  0
 61 58  2  0
 62 61  1  0
 62 63  2  0
 63 60  1  0
 64 65  1  0
 65 69  2  0
 65 66  1  0
 66 67  1  0
 68 67  1  0
 69 68  1  0
 70 66  1  0
 72 71  1  0
 73 76  1  1
 73 45  1  0
 74 73  1  0
 75 73  1  0
M  ISO  4  12 100  14 100  40 101  42 101
M  END
>  <TORSDO>  (51) 
F 17

>  <SCORE>  (51) 
-12.261

>  <name>  (51) 
50

>  <ligand_id>  (51) 
50

>  <original_smiles>  (51) 
[H]OC1([H])C([H])([H])N(C(=O)C([H])(N([H])C(=O)OC(=O)C(=O)N([H])C([H])([H])C(=O)N([H])N([H])C(=O)C([H])([H])C2([H])N=C(c3c([H])c([H])c(Cl)c([H])c3[H])c3c(sc(C([H])([H])[H])c3C([H])([H])[H])-n3c(C([H])([H])[H])nnc32)C(C([H])([H])[H])(C([H])([H])[H])C([H])([H])[H])C([H])(C(=O)N([H])C([H])([H])c2c([H])c([H])c(C3=C(C([H])([H])[H])N([H])C([H])([H])S3)c([H])c2[H])C1([H])[H]

>  <smiles>  (51) 
[H]OC1([H])C([H])([H])N(C(=O)C([H])(N([H])C(=O)OC(=O)C(=O)N([H])C([H])([H])C(=O)N([H])N([H])C(=O)C([H])([H])C2([H])N=C(c3c([H])c([H])c(Cl)c([H])c3[H])c3c(sc(C([H])([H])[H])c3C([H])([H])[H])-n3c(C([H])([H])[H])nnc32)C(C([H])([H])[H])(C([H])([H])[H])C([H])([H])[H])C([H])(C(=O)N([H])C([H])([H])c2c([H])c([H])c(C3=C(C([H])([H])[H])N([H])C([H])([H])S3)c([H])c2[H])C1([H])[H]

$$$$
51:0:0
     RDKit          3D

 78 85  0  0  1  0  0  0  0  0999 V2000
   26.4260  -28.1710  -16.9270 C   0  0  0  0  0  0  0  0  0  0  0  0
   25.5900  -28.9740  -17.5030 N   0  0  0  0  0  2  0  0  0  0  0  0
   27.7630  -28.2810  -17.2370 N   0  0  0  0  0  4  0  0  0  0  0  0
   26.1480  -27.1670  -15.9920 N   0  0  0  0  0  0  0  0  0  0  0  0
   28.1330  -28.9490  -17.9040 H   0  0  0  0  0  0  0  0  0  0  0  0
   28.5240  -27.7950  -16.7860 H   0  0  0  0  0  0  0  0  0  0  0  0
   25.3700  -27.1610  -15.3340 H   0  0  0  0  0  0  0  0  0  0  0  0
   26.0220  -24.7130  -15.3580 N   0  0  1  0  0  4  0  0  0  0  0  0
   27.0260  -25.2930  -14.6620 C   0  0  0  0  0  0  0  0  0  0  0  0
   26.9530  -24.5630  -13.6680 O   0  0  0  0  0  0  0  0  0  0  0  0
   27.0470  -26.0730  -15.7670 N   0  0  1  0  0  4  0  0  0  0  0  0
   25.9280  -25.1770  -16.2470 H   0  0  0  0  0  0  0  0  0  0  0  0
   27.9740  -26.3120  -16.0880 H   0  0  0  0  0  0  0  0  0  0  0  0
   25.0340  -23.6370  -15.1720 C   0  0  0  0  0  3  0  0  0  0  0  0
   21.9010  -23.9640  -12.8130 C   0  0  0  0  0  3  0  0  0  0  0  0
   21.4480  -22.7470  -11.9890 C   0  0  0  0  0  2  0  0  0  0  0  0
   22.7180  -21.9570  -11.7560 C   0  0  0  0  0  3  0  0  0  0  0  0
   23.5930  -22.2520  -12.9740 C   0  0  0  0  0  2  0  0  0  0  0  0
   23.1100  -23.5180  -13.5400 N   0  0  0  0  0  0  0  0  0  0  0  0
   23.7670  -24.2360  -14.4880 C   0  0  0  0  0  0  0  0  0  0  0  0
   23.4060  -25.3760  -14.8120 O   0  0  0  0  0  0  0  0  0  0  0  0
   19.9300  -25.3580  -13.1410 N   0  0  0  0  0  0  0  0  0  0  0  0
   20.7290  -24.4370  -13.6900 C   0  0  0  0  0  0  0  0  0  0  0  0
   20.5260  -23.9370  -14.7990 O   0  0  0  0  0  0  0  0  0  0  0  0
   20.1810  -25.7200  -12.2300 H   0  0  0  0  0  0  0  0  0  0  0  0
   18.6590  -25.8060  -13.6960 C   0  0  0  0  0  2  0  0  0  0  0  0
   15.3200  -23.2120  -12.6560 C   0  0  0  0  0  0  0  0  0  0  0  0
   16.3530  -23.4450  -11.7240 C   0  0  0  0  0  3  0  0  0  0  0  0
   17.4360  -24.2780  -12.0570 C   0  0  0  0  0  3  0  0  0  0  0  0
   15.3850  -23.8200  -13.9280 C   0  0  0  0  0  3  0  0  0  0  0  0
   16.4680  -24.6560  -14.2600 C   0  0  0  0  0  3  0  0  0  0  0  0
   17.5000  -24.8910  -13.3280 C   0  0  0  0  0  0  0  0  0  0  0  0
   12.1870  -23.6720  -13.2860 C   0  0  0  0  0  1  0  0  0  0  0  0
   12.8550  -22.5430  -12.5260 C   0  0  0  0  0  0  0  0  0  0  0  0
   12.0470  -21.5800  -11.9570 N   0  0  0  0  0  0  0  0  0  0  0  0
   12.6910  -20.6480  -11.0390 C   0  0  0  0  0  2  0  0  0  0  0  0
   14.4570  -20.9250  -11.3420 S   0  0  0  0  0  0  0  0  0  0  0  0
   14.1600  -22.3960  -12.2550 C   0  0  0  0  0  0  0  0  0  0  0  0
   11.0320  -21.6210  -11.9830 H   0  0  0  0  0  0  0  0  0  0  0  0
   23.3820  -22.4200  -10.5910 O   0  0  0  0  0  0  0  0  0  0  0  0
   23.5990  -23.3400  -10.7120 H   0  0  0  0  0  0  0  0  0  0  0  0
   24.7370  -23.0320  -16.5990 C   0  0  1  0  0  0  0  0  0  0  0  0
   26.0330  -22.3940  -17.1540 C   0  0  0  0  0  1  0  0  0  0  0  0
   24.2450  -24.0780  -17.6320 C   0  0  0  0  0  1  0  0  0  0  0  0
   23.6800  -21.9080  -16.5340 C   0  0  0  0  0  1  0  0  0  0  0  0
   24.2350  -28.6570  -17.3050 N   0  0  0  0  0  4  0  0  0  0  0  0
   23.9940  -28.0670  -18.0880 H   0  0  0  0  0  0  0  0  0  0  0  0
   24.2040  -28.0860  -16.4770 H   0  0  0  0  0  0  0  0  0  0  0  0
   23.3660  -29.8240  -17.2240 O   0  0  0  0  0  0  0  0  0  0  0  0
   22.1650  -29.5130  -17.9340 C   0  0  0  0  0  2  0  0  0  0  0  0
   20.7950  -31.4800  -17.3060 C   0  0  0  0  0  0  0  0  0  0  0  0
   20.2860  -30.9840  -16.2990 O   0  0  0  0  0  0  0  0  0  0  0  0
   21.4130  -30.7320  -18.2280 N   0  0  0  0  0  0  0  0  0  0  0  0
   21.6180  -31.1650  -19.1170 H   0  0  0  0  0  0  0  0  0  0  0  0
   20.9000  -33.0060  -17.4610 C   0  0  0  0  0  2  0  0  0  0  0  0
   21.4250  -33.6870  -16.1630 C   0  0  0  0  0  3  0  0  0  0  0  0
   22.7560  -33.1660  -15.8310 N   0  0  0  0  0  0  0  0  0  0  0  0
   21.4720  -35.2010  -16.2180 C   0  0  0  0  0  0  0  0  0  0  0  0
   21.2750  -35.9680  -17.2970 N   0  0  0  0  0  0  0  0  0  0  0  0
   21.4980  -37.2650  -16.8820 N   0  0  0  0  0  0  0  0  0  0  0  0
   21.8220  -37.1810  -15.5890 C   0  0  0  0  0  0  0  0  0  0  0  0
   22.2080  -38.3670  -14.7570 C   0  0  0  0  0  1  0  0  0  0  0  0
   21.7970  -35.9140  -15.1200 N   0  0  0  0  0  0  0  0  0  0  0  0
   22.0320  -35.4050  -13.8270 C   0  0  0  0  0  0  0  0  0  0  0  0
   21.4990  -36.1350  -12.3480 S   0  0  0  0  0  0  0  0  0  0  0  0
   22.1090  -34.7990  -11.4120 C   0  0  0  0  0  0  0  0  0  0  0  0
   21.9470  -34.8180   -9.9260 C   0  0  0  0  0  1  0  0  0  0  0  0
   22.6750  -33.8250  -12.2100 C   0  0  0  0  0  0  0  0  0  0  0  0
   23.2100  -32.5300  -11.6510 C   0  0  0  0  0  1  0  0  0  0  0  0
   22.6650  -34.1990  -13.6020 C   0  0  0  0  0  0  0  0  0  0  0  0
   23.2910  -33.3710  -14.6840 C   0  0  0  0  0  0  0  0  0  0  0  0
   24.6250  -32.7780  -14.4320 C   0  0  0  0  0  0  0  0  0  0  0  0
   25.6460  -33.5560  -13.8420 C   0  0  0  0  0  3  0  0  0  0  0  0
   26.9020  -32.9850  -13.5750 C   0  0  0  0  0  3  0  0  0  0  0  0
   27.1490  -31.6380  -13.8990 C   0  0  0  0  0  0  0  0  0  0  0  0
   28.6870  -30.9310  -13.5730 Cl  0  0  0  0  0  0  0  0  0  0  0  0
   26.1350  -30.8610  -14.4830 C   0  0  0  0  0  3  0  0  0  0  0  0
   24.8760  -31.4300  -14.7550 C   0  0  0  0  0  3  0  0  0  0  0  0
  1  4  1  0
  2 46  1  0
  2  1  1  0
  3  1  2  0
  3  6  1  0
  4 11  1  0
  4  7  1  0
  5  3  1  0
  8 14  1  0
  8  9  1  0
  9 10  2  0
 11  8  1  0
 11  9  1  0
  8 12  1  6
 11 13  1  6
 14 20  1  0
 15 23  1  0
 15 16  1  0
 16 17  1  0
 17 40  1  0
 18 17  1  0
 19 18  1  0
 19 15  1  0
 20 19  1  0
 21 20  2  0
 22 25  1  0
 23 22  1  0
 24 23  2  0
 26 32  1  0
 26 22  1  0
 27 38  1  0
 27 28  1  0
 29 28  2  0
 30 27  2  0
 31 30  1  0
 31 32  2  0
 32 29  1  0
 33 34  1  0
 34 38  2  0
 34 35  1  0
 35 36  1  0
 37 36  1  0
 38 37  1  0
 39 35  1  0
 41 40  1  0
 42 45  1  1
 42 14  1  0
 43 42  1  0
 44 42  1  0
 46 49  1  0
 46 48  1  0
 47 46  1  0
 50 49  1  0
 51 52  2  0
 53 50  1  0
 53 51  1  0
 54 53  1  0
 55 51  1  0
 56 55  1  0
 56 57  1  0
 57 71  2  0
 58 56  1  0
 58 63  1  0
 59 60  1  0
 59 58  2  0
 60 61  2  0
 61 63  1  0
 61 62  1  0
 63 64  1  0
 64 70  2  0
 64 65  1  0
 65 66  1  0
 66 67  1  0
 68 69  1  0
 68 66  2  0
 70 68  1  0
 71 72  1  0
 71 70  1  0
 72 73  1  0
 73 74  2  0
 75 74  1  0
 75 76  1  0
 77 75  2  0
 78 77  1  0
 78 72  2  0
M  ISO  4   9 101  11 101  51 100  53 100
M  END
>  <TORSDO>  (52) 
F 16

>  <SCORE>  (52) 
-14.151

>  <name>  (52) 
51

>  <ligand_id>  (52) 
51

>  <original_smiles>  (52) 
[H]OC1([H])C([H])([H])N(C(=O)C([H])(N([H])C(=O)N([H])N([H])C(=N[N+]([H])([H])OC([H])([H])N([H])C(=O)C([H])([H])C2([H])N=C(c3c([H])c([H])c(Cl)c([H])c3[H])c3c(sc(C([H])([H])[H])c3C([H])([H])[H])-n3c(C([H])([H])[H])nnc32)N([H])[H])C(C([H])([H])[H])(C([H])([H])[H])C([H])([H])[H])C([H])(C(=O)N([H])C([H])([H])c2c([H])c([H])c(C3=C(C([H])([H])[H])N([H])C([H])([H])S3)c([H])c2[H])C1([H])[H]

>  <smiles>  (52) 
[H]OC1([H])C([H])([H])N(C(=O)C([H])(N([H])C(=O)N([H])N([H])C(=N[N+]([H])([H])OC([H])([H])N([H])C(=O)C([H])([H])C2([H])N=C(c3c([H])c([H])c(Cl)c([H])c3[H])c3c(sc(C([H])([H])[H])c3C([H])([H])[H])-n3c(C([H])([H])[H])nnc32)N([H])[H])C(C([H])([H])[H])(C([H])([H])[H])C([H])([H])[H])C([H])(C(=O)N([H])C([H])([H])c2c([H])c([H])c(C3=C(C([H])([H])[H])N([H])C([H])([H])S3)c([H])c2[H])C1([H])[H]

$$$$
52:0:0
     RDKit          3D

 76 82  0  0  1  0  0  0  0  0999 V2000
   25.9930  -24.5770  -15.6060 N   0  0  0  0  0  0  0  0  0  0  0  0
   26.6100  -25.3340  -14.7250 C   0  0  0  0  0  0  0  0  0  0  0  0
   27.1080  -24.9300  -13.6600 O   0  0  0  0  0  0  0  0  0  0  0  0
   26.4510  -27.5720  -15.7860 C   0  0  0  0  0  3  0  0  0  0  0  0
   27.9410  -27.7930  -15.8580 C   0  0  0  0  0  1  0  0  0  0  0  0
   25.6780  -28.3490  -16.6240 N   0  0  0  0  0  0  0  0  0  0  0  0
   25.9770  -26.6180  -14.9360 N   0  0  0  0  0  0  0  0  0  0  0  0
   25.8280  -25.0130  -16.5010 H   0  0  0  0  0  0  0  0  0  0  0  0
   26.2120  -29.0230  -17.1580 H   0  0  0  0  0  0  0  0  0  0  0  0
   24.9650  -26.5860  -14.9160 H   0  0  0  0  0  0  0  0  0  0  0  0
   24.9830  -23.5670  -15.3320 C   0  0  0  0  0  3  0  0  0  0  0  0
   21.9190  -24.0280  -12.8840 C   0  0  0  0  0  3  0  0  0  0  0  0
   21.4850  -22.8540  -11.9910 C   0  0  0  0  0  2  0  0  0  0  0  0
   22.7600  -22.0730  -11.7500 C   0  0  0  0  0  3  0  0  0  0  0  0
   23.6050  -22.3040  -13.0020 C   0  0  0  0  0  2  0  0  0  0  0  0
   23.1070  -23.5400  -13.6150 N   0  0  0  0  0  0  0  0  0  0  0  0
   23.7400  -24.2040  -14.6140 C   0  0  0  0  0  0  0  0  0  0  0  0
   23.4020  -25.3470  -14.9550 O   0  0  0  0  0  0  0  0  0  0  0  0
   19.9200  -25.3880  -13.2190 N   0  0  0  0  0  0  0  0  0  0  0  0
   20.7270  -24.4660  -13.7540 C   0  0  0  0  0  0  0  0  0  0  0  0
   20.5160  -23.9380  -14.8470 O   0  0  0  0  0  0  0  0  0  0  0  0
   20.1760  -25.7790  -12.3220 H   0  0  0  0  0  0  0  0  0  0  0  0
   18.6350  -25.8000  -13.7690 C   0  0  0  0  0  2  0  0  0  0  0  0
   15.3580  -23.1570  -12.6570 C   0  0  0  0  0  0  0  0  0  0  0  0
   16.4060  -23.4070  -11.7480 C   0  0  0  0  0  3  0  0  0  0  0  0
   17.4670  -24.2570  -12.1040 C   0  0  0  0  0  3  0  0  0  0  0  0
   15.3860  -23.7630  -13.9310 C   0  0  0  0  0  3  0  0  0  0  0  0
   16.4500  -24.6140  -14.2880 C   0  0  0  0  0  3  0  0  0  0  0  0
   17.4960  -24.8670  -13.3770 C   0  0  0  0  0  0  0  0  0  0  0  0
   12.2070  -23.5760  -13.2130 C   0  0  0  0  0  1  0  0  0  0  0  0
   12.9070  -22.4550  -12.4710 C   0  0  0  0  0  0  0  0  0  0  0  0
   12.1250  -21.4830  -11.8840 N   0  0  0  0  0  0  0  0  0  0  0  0
   12.8030  -20.5500  -10.9920 C   0  0  0  0  0  2  0  0  0  0  0  0
   14.5580  -20.8550  -11.3320 S   0  0  0  0  0  0  0  0  0  0  0  0
   14.2190  -22.3240  -12.2330 C   0  0  0  0  0  0  0  0  0  0  0  0
   11.1090  -21.5120  -11.8840 H   0  0  0  0  0  0  0  0  0  0  0  0
   23.4490  -22.5930  -10.6240 O   0  0  0  0  0  0  0  0  0  0  0  0
   23.6350  -23.5130  -10.7790 H   0  0  0  0  0  0  0  0  0  0  0  0
   24.6740  -22.9440  -16.7320 C   0  0  1  0  0  0  0  0  0  0  0  0
   25.9600  -22.2740  -17.2780 C   0  0  0  0  0  1  0  0  0  0  0  0
   24.2010  -23.9930  -17.7730 C   0  0  0  0  0  1  0  0  0  0  0  0
   23.5970  -21.8490  -16.6290 C   0  0  0  0  0  1  0  0  0  0  0  0
   24.2680  -28.3490  -17.1520 C   0  0  0  0  0  2  0  0  0  0  0  0
   23.2570  -28.8690  -16.1370 C   0  0  0  0  0  0  0  0  0  0  0  0
   23.2730  -28.3850  -14.8750 N   0  0  0  0  0  4  0  0  0  0  0  0
   22.2480  -29.7360  -16.4620 N   0  0  0  0  0  0  0  0  0  0  0  0
   24.0910  -27.9900  -14.4520 H   0  0  0  0  0  0  0  0  0  0  0  0
   22.5050  -28.5510  -14.2390 H   0  0  0  0  0  0  0  0  0  0  0  0
   21.4190  -29.8610  -15.8930 H   0  0  0  0  0  0  0  0  0  0  0  0
   22.2810  -30.7120  -17.4610 O   0  0  0  0  0  0  0  0  0  0  0  0
   21.1740  -31.5420  -17.2620 C   0  0  0  0  0  0  0  0  0  0  0  0
   20.2080  -31.1780  -16.5880 O   0  0  0  0  0  0  0  0  0  0  0  0
   21.3780  -33.0520  -17.5370 C   0  0  0  0  0  2  0  0  0  0  0  0
   21.7070  -33.7770  -16.1980 C   0  0  0  0  0  3  0  0  0  0  0  0
   23.0240  -33.3020  -15.7810 N   0  0  0  0  0  0  0  0  0  0  0  0
   21.6940  -35.3020  -16.1960 C   0  0  0  0  0  0  0  0  0  0  0  0
   21.5280  -36.1100  -17.2500 N   0  0  0  0  0  0  0  0  0  0  0  0
   21.6940  -37.3970  -16.7680 N   0  0  0  0  0  0  0  0  0  0  0  0
   21.9480  -37.2680  -15.4610 C   0  0  0  0  0  0  0  0  0  0  0  0
   22.2590  -38.4270  -14.5610 C   0  0  0  0  0  1  0  0  0  0  0  0
   21.9260  -35.9820  -15.0490 N   0  0  0  0  0  0  0  0  0  0  0  0
   22.0930  -35.4330  -13.7600 C   0  0  0  0  0  0  0  0  0  0  0  0
   21.4560  -36.0950  -12.2860 S   0  0  0  0  0  0  0  0  0  0  0  0
   22.0430  -34.7340  -11.3690 C   0  0  0  0  0  0  0  0  0  0  0  0
   21.8010  -34.6770   -9.8930 C   0  0  0  0  0  1  0  0  0  0  0  0
   22.6810  -33.8080  -12.1660 C   0  0  0  0  0  0  0  0  0  0  0  0
   23.2160  -32.5070  -11.6250 C   0  0  0  0  0  1  0  0  0  0  0  0
   22.7490  -34.2430  -13.5370 C   0  0  0  0  0  0  0  0  0  0  0  0
   23.4740  -33.4840  -14.6020 C   0  0  0  0  0  0  0  0  0  0  0  0
   24.8010  -32.9160  -14.2970 C   0  0  0  0  0  0  0  0  0  0  0  0
   25.7600  -33.6750  -13.5950 C   0  0  0  0  0  3  0  0  0  0  0  0
   27.0150  -33.1150  -13.2860 C   0  0  0  0  0  3  0  0  0  0  0  0
   27.3050  -31.7910  -13.6600 C   0  0  0  0  0  0  0  0  0  0  0  0
   28.8310  -31.0860  -13.2900 Cl  0  0  0  0  0  0  0  0  0  0  0  0
   26.3440  -31.0310  -14.3330 C   0  0  0  0  0  3  0  0  0  0  0  0
   25.1070  -31.5990  -14.6840 C   0  0  0  0  0  3  0  0  0  0  0  0
  1 11  1  0
  1  2  1  0
  2  3  2  0
  4  5  1  0
  4  7  1  0
  6  4  1  0
  7 10  1  0
  7  2  1  0
  8  1  1  0
  9  6  1  0
 11 17  1  0
 12 20  1  0
 12 13  1  0
 13 14  1  0
 14 37  1  0
 15 14  1  0
 16 15  1  0
 16 12  1  0
 17 16  1  0
 18 17  2  0
 19 22  1  0
 20 19  1  0
 21 20  2  0
 23 29  1  0
 23 19  1  0
 24 35  1  0
 24 25  1  0
 26 25  2  0
 27 24  2  0
 28 27  1  0
 28 29  2  0
 29 26  1  0
 30 31  1  0
 31 35  2  0
 31 32  1  0
 32 36  1  0
 32 33  1  0
 34 33  1  0
 35 34  1  0
 38 37  1  0
 39 42  1  1
 39 11  1  0
 40 39  1  0
 41 39  1  0
 43  6  1  0
 43 44  1  0
 44 45  2  0
 45 47  1  0
 45 48  1  0
 46 44  1  0
 46 49  1  0
 50 51  1  0
 50 46  1  0
 51 52  2  0
 53 51  1  0
 54 53  1  0
 54 56  1  0
 54 55  1  0
 55 69  2  0
 56 61  1  0
 57 58  1  0
 57 56  2  0
 58 59  2  0
 59 61  1  0
 59 60  1  0
 61 62  1  0
 62 68  2  0
 62 63  1  0
 63 64  1  0
 64 65  1  0
 66 67  1  0
 66 64  2  0
 68 66  1  0
 69 70  1  0
 69 68  1  0
 70 71  1  0
 71 72  2  0
 73 74  1  0
 73 72  1  0
 75 73  2  0
 76 75  1  0
 76 70  2  0
M  ISO  4   2 101   7 101  50 100  51 100
M  END
>  <TORSDO>  (53) 
F 15

>  <SCORE>  (53) 
-14.657

>  <name>  (53) 
52

>  <ligand_id>  (53) 
52

>  <original_smiles>  (53) 
[H]OC1([H])C([H])([H])N(C(=O)C([H])(N([H])C(=O)[N+]([H])=C(N([H])C([H])([H])C(N([H])[H])=[N+]([H])OC(=O)C([H])([H])C2([H])N=C(c3c([H])c([H])c(Cl)c([H])c3[H])c3c(sc(C([H])([H])[H])c3C([H])([H])[H])-n3c(C([H])([H])[H])nnc32)C([H])([H])[H])C(C([H])([H])[H])(C([H])([H])[H])C([H])([H])[H])C([H])(C(=O)N([H])C([H])([H])c2c([H])c([H])c(C3=C(C([H])([H])[H])N([H])C([H])([H])S3)c([H])c2[H])C1([H])[H]

>  <smiles>  (53) 
[H]OC1([H])C([H])([H])N(C(=O)C([H])(N([H])C(=O)[N+]([H])=C(N([H])C([H])([H])C(N([H])[H])=[N+]([H])OC(=O)C([H])([H])C2([H])N=C(c3c([H])c([H])c(Cl)c([H])c3[H])c3c(sc(C([H])([H])[H])c3C([H])([H])[H])-n3c(C([H])([H])[H])nnc32)C([H])([H])[H])C(C([H])([H])[H])(C([H])([H])[H])C([H])([H])[H])C([H])(C(=O)N([H])C([H])([H])c2c([H])c([H])c(C3=C(C([H])([H])[H])N([H])C([H])([H])S3)c([H])c2[H])C1([H])[H]

$$$$
53:0:0
     RDKit          3D

 84 90  0  0  1  0  0  0  0  0999 V2000
   25.3780  -24.7940  -15.8010 N   0  0  0  0  0  0  0  0  0  0  0  0
   26.0890  -25.6510  -15.0850 C   0  0  0  0  0  0  0  0  0  0  0  0
   26.8210  -25.3520  -14.1290 O   0  0  0  0  0  0  0  0  0  0  0  0
   22.6130  -27.7460  -17.4200 C   0  0  0  0  0  0  0  0  0  0  0  0
   24.4830  -27.4050  -15.6310 C   0  0  0  0  0  0  0  0  0  0  0  0
   23.9780  -27.6640  -16.9000 N   0  0  0  0  0  0  0  0  0  0  0  0
   25.7980  -27.0050  -15.5040 N   0  0  0  0  0  0  0  0  0  0  0  0
   21.6790  -27.1650  -16.8720 O   0  0  0  0  0  0  0  0  0  0  0  0
   24.9550  -25.1590  -16.6410 H   0  0  0  0  0  0  0  0  0  0  0  0
   24.7010  -27.8990  -17.5670 H   0  0  0  0  0  0  0  0  0  0  0  0
   26.3960  -27.7230  -15.1210 H   0  0  0  0  0  0  0  0  0  0  0  0
   22.4550  -28.5610  -18.7730 C   0  0  0  0  0  0  0  0  0  0  0  0
   23.3250  -28.4260  -19.6400 O   0  0  0  0  0  0  0  0  0  0  0  0
   20.0700  -28.6130  -19.6930 C   0  0  0  0  0  1  0  0  0  0  0  0
   21.5420  -30.5510  -20.1470 C   0  0  0  0  0  1  0  0  0  0  0  0
   21.1980  -29.4790  -19.0860 C   0  0  1  0  0  0  0  0  0  0  0  0
   20.5400  -31.2420  -17.1860 C   0  0  0  0  0  0  0  0  0  0  0  0
   19.9890  -31.1380  -16.0970 O   0  0  0  0  0  0  0  0  0  0  0  0
   20.5970  -30.0770  -17.8730 N   0  0  0  0  0  0  0  0  0  0  0  0
   20.0360  -29.3900  -17.3930 H   0  0  0  0  0  0  0  0  0  0  0  0
   21.1650  -32.6180  -17.5420 C   0  0  0  0  0  2  0  0  0  0  0  0
   21.5520  -33.4050  -16.2530 C   0  0  0  0  0  3  0  0  0  0  0  0
   22.8760  -32.9290  -15.8640 N   0  0  0  0  0  0  0  0  0  0  0  0
   21.5610  -34.9280  -16.3460 C   0  0  0  0  0  0  0  0  0  0  0  0
   21.3560  -35.6690  -17.4420 N   0  0  0  0  0  0  0  0  0  0  0  0
   21.5510  -36.9820  -17.0520 N   0  0  0  0  0  0  0  0  0  0  0  0
   21.8620  -36.9320  -15.7540 C   0  0  0  0  0  0  0  0  0  0  0  0
   22.2260  -38.1390  -14.9410 C   0  0  0  0  0  1  0  0  0  0  0  0
   21.8470  -35.6760  -15.2560 N   0  0  0  0  0  0  0  0  0  0  0  0
   22.0650  -35.2090  -13.9450 C   0  0  0  0  0  0  0  0  0  0  0  0
   21.5000  -35.9700  -12.4890 S   0  0  0  0  0  0  0  0  0  0  0  0
   22.1100  -34.6630  -11.5150 C   0  0  0  0  0  0  0  0  0  0  0  0
   21.9410  -34.7020  -10.0310 C   0  0  0  0  0  1  0  0  0  0  0  0
   22.7010  -33.6800  -12.2760 C   0  0  0  0  0  0  0  0  0  0  0  0
   23.2490  -32.4140  -11.6720 C   0  0  0  0  0  1  0  0  0  0  0  0
   22.7100  -34.0210  -13.6740 C   0  0  0  0  0  0  0  0  0  0  0  0
   23.3730  -33.1770  -14.7170 C   0  0  0  0  0  0  0  0  0  0  0  0
   24.7020  -32.6030  -14.4330 C   0  0  0  0  0  0  0  0  0  0  0  0
   25.6760  -33.3690  -13.7600 C   0  0  0  0  0  3  0  0  0  0  0  0
   26.9350  -32.8100  -13.4720 C   0  0  0  0  0  3  0  0  0  0  0  0
   27.2230  -31.4920  -13.8690 C   0  0  0  0  0  0  0  0  0  0  0  0
   28.7630  -30.7970  -13.5270 Cl  0  0  0  0  0  0  0  0  0  0  0  0
   26.2550  -30.7300  -14.5440 C   0  0  0  0  0  3  0  0  0  0  0  0
   24.9900  -31.2790  -14.8210 C   0  0  0  0  0  3  0  0  0  0  0  0
   23.8260  -27.6820  -14.2540 C   0  0  0  0  0  3  0  0  0  0  0  0
   22.3920  -28.0410  -13.8690 C   0  0  0  0  0  0  0  0  0  0  0  0
   21.3440  -27.2470  -14.1110 N   0  0  0  0  0  4  0  0  0  0  0  0
   22.1570  -29.1390  -13.1250 N   0  0  0  0  0  0  0  0  0  0  0  0
   21.4420  -26.4610  -14.7590 H   0  0  0  0  0  0  0  0  0  0  0  0
   20.4080  -27.4530  -13.8010 H   0  0  0  0  0  0  0  0  0  0  0  0
   22.9030  -29.7430  -12.8040 H   0  0  0  0  0  0  0  0  0  0  0  0
   21.2540  -29.3110  -12.7050 H   0  0  0  0  0  0  0  0  0  0  0  0
   24.6980  -23.6160  -15.2910 C   0  0  0  0  0  3  0  0  0  0  0  0
   21.6530  -23.7210  -12.7950 C   0  0  0  0  0  3  0  0  0  0  0  0
   21.2510  -22.4540  -12.0270 C   0  0  0  0  0  2  0  0  0  0  0  0
   22.5420  -21.6700  -11.8920 C   0  0  0  0  0  3  0  0  0  0  0  0
   23.3700  -22.0500  -13.1190 C   0  0  0  0  0  2  0  0  0  0  0  0
   22.8350  -23.3320  -13.5910 N   0  0  0  0  0  0  0  0  0  0  0  0
   23.4310  -24.1090  -14.5270 C   0  0  0  0  0  0  0  0  0  0  0  0
   23.0360  -25.2570  -14.7540 O   0  0  0  0  0  0  0  0  0  0  0  0
   19.6630  -25.1290  -12.9700 N   0  0  0  0  0  0  0  0  0  0  0  0
   20.4420  -24.2360  -13.5930 C   0  0  0  0  0  0  0  0  0  0  0  0
   20.1990  -23.7990  -14.7190 O   0  0  0  0  0  0  0  0  0  0  0  0
   19.9360  -25.4360  -12.0480 H   0  0  0  0  0  0  0  0  0  0  0  0
   18.3710  -25.5990  -13.4560 C   0  0  0  0  0  2  0  0  0  0  0  0
   15.0790  -22.9480  -12.4050 C   0  0  0  0  0  0  0  0  0  0  0  0
   16.1660  -23.1150  -11.5210 C   0  0  0  0  0  3  0  0  0  0  0  0
   17.2310  -23.9670  -11.8570 C   0  0  0  0  0  3  0  0  0  0  0  0
   15.0760  -23.6400  -13.6360 C   0  0  0  0  0  3  0  0  0  0  0  0
   16.1440  -24.4930  -13.9740 C   0  0  0  0  0  3  0  0  0  0  0  0
   17.2270  -24.6630  -13.0860 C   0  0  0  0  0  0  0  0  0  0  0  0
   11.9250  -23.4560  -12.8420 C   0  0  0  0  0  1  0  0  0  0  0  0
   12.6230  -22.2800  -12.1880 C   0  0  0  0  0  0  0  0  0  0  0  0
   11.8390  -21.2930  -11.6310 N   0  0  0  0  0  0  0  0  0  0  0  0
   12.5250  -20.2970  -10.8160 C   0  0  0  0  0  2  0  0  0  0  0  0
   14.2780  -20.5880  -11.1910 S   0  0  0  0  0  0  0  0  0  0  0  0
   13.9390  -22.1120  -11.9980 C   0  0  0  0  0  0  0  0  0  0  0  0
   10.8260  -21.3350  -11.6030 H   0  0  0  0  0  0  0  0  0  0  0  0
   23.2390  -22.0650  -10.7210 O   0  0  0  0  0  0  0  0  0  0  0  0
   23.3880  -23.0030  -10.7660 H   0  0  0  0  0  0  0  0  0  0  0  0
   24.3580  -22.7340  -16.5400 C   0  0  1  0  0  0  0  0  0  0  0  0
   25.6700  -22.1170  -17.0740 C   0  0  0  0  0  1  0  0  0  0  0  0
   23.6950  -23.5340  -17.6910 C   0  0  0  0  0  1  0  0  0  0  0  0
   23.4170  -21.5670  -16.1720 C   0  0  0  0  0  1  0  0  0  0  0  0
  1 53  1  0
  1  2  1  0
  2  3  2  0
  4  6  1  0
  4  8  2  0
  5  7  1  0
  5 45  2  0
  6  5  1  0
  7 11  1  0
  7  2  1  0
  9  1  1  0
 10  6  1  0
 12  4  1  0
 13 12  2  0
 16 14  1  6
 15 16  1  0
 16 12  1  0
 16 19  1  0
 17 18  2  0
 19 20  1  0
 19 17  1  0
 21 17  1  0
 22 21  1  0
 22 23  1  0
 23 37  2  0
 24 22  1  0
 24 29  1  0
 25 26  1  0
 25 24  2  0
 26 27  2  0
 27 29  1  0
 27 28  1  0
 29 30  1  0
 30 36  2  0
 30 31  1  0
 31 32  1  0
 32 33  1  0
 34 35  1  0
 34 32  2  0
 36 34  1  0
 37 38  1  0
 37 36  1  0
 38 39  1  0
 39 40  2  0
 41 42  1  0
 41 40  1  0
 43 41  2  0
 44 43  1  0
 44 38  2  0
 45 46  1  0
 46 48  1  0
 47 46  2  0
 47 50  1  0
 48 51  1  0
 48 52  1  0
 49 47  1  0
 53 59  1  0
 54 62  1  0
 54 55  1  0
 55 56  1  0
 56 79  1  0
 57 56  1  0
 58 57  1  0
 58 54  1  0
 59 58  1  0
 60 59  2  0
 61 64  1  0
 62 61  1  0
 63 62  2  0
 65 71  1  0
 65 61  1  0
 66 77  1  0
 66 67  1  0
 68 67  2  0
 69 66  2  0
 70 69  1  0
 70 71  2  0
 71 68  1  0
 72 73  1  0
 73 77  2  0
 73 74  1  0
 74 78  1  0
 74 75  1  0
 76 75  1  0
 77 76  1  0
 80 79  1  0
 81 84  1  1
 81 53  1  0
 82 81  1  0
 83 81  1  0
M  ISO  4   2 101   7 101  17 100  19 100
M  END
>  <TORSDO>  (54) 
F 16

>  <SCORE>  (54) 
-11.868

>  <name>  (54) 
53

>  <ligand_id>  (54) 
53

>  <original_smiles>  (54) 
[H]OC1([H])C([H])([H])N(C(=O)C([H])(N([H])C(=O)[N+]([H])=C(N([H])C(=O)C(=O)C(N([H])C(=O)C([H])([H])C2([H])N=C(c3c([H])c([H])c(Cl)c([H])c3[H])c3c(sc(C([H])([H])[H])c3C([H])([H])[H])-n3c(C([H])([H])[H])nnc32)(C([H])([H])[H])C([H])([H])[H])C([H])([H])C(N([H])[H])=[N+]([H])[H])C(C([H])([H])[H])(C([H])([H])[H])C([H])([H])[H])C([H])(C(=O)N([H])C([H])([H])c2c([H])c([H])c(C3=C(C([H])([H])[H])N([H])C([H])([H])S3)c([H])c2[H])C1([H])[H]

>  <smiles>  (54) 
[H]OC1([H])C([H])([H])N(C(=O)C([H])(N([H])C(=O)[N+]([H])=C(N([H])C(=O)C(=O)C(N([H])C(=O)C([H])([H])C2([H])N=C(c3c([H])c([H])c(Cl)c([H])c3[H])c3c(sc(C([H])([H])[H])c3C([H])([H])[H])-n3c(C([H])([H])[H])nnc32)(C([H])([H])[H])C([H])([H])[H])C([H])([H])C(N([H])[H])=[N+]([H])[H])C(C([H])([H])[H])(C([H])([H])[H])C([H])([H])[H])C([H])(C(=O)N([H])C([H])([H])c2c([H])c([H])c(C3=C(C([H])([H])[H])N([H])C([H])([H])S3)c([H])c2[H])C1([H])[H]

$$$$
54:0:0
     RDKit          3D

 75 83  0  0  1  0  0  0  0  0999 V2000
   25.8490  -24.4820  -15.3320 N   0  0  0  0  0  0  0  0  0  0  0  0
   26.6140  -25.1900  -14.5210 C   0  0  0  0  0  0  0  0  0  0  0  0
   27.1640  -24.6870  -13.5290 O   0  0  0  0  0  0  0  0  0  0  0  0
   26.6050  -26.4950  -14.9390 N   0  0  0  0  0  0  0  0  0  0  0  0
   25.6190  -24.9660  -16.1820 H   0  0  0  0  0  0  0  0  0  0  0  0
   27.1370  -27.1770  -14.4200 H   0  0  0  0  0  0  0  0  0  0  0  0
   24.8880  -23.4340  -15.0750 C   0  0  0  0  0  3  0  0  0  0  0  0
   21.7470  -23.7040  -12.7180 C   0  0  0  0  0  3  0  0  0  0  0  0
   21.2340  -22.4440  -12.0040 C   0  0  0  0  0  2  0  0  0  0  0  0
   22.4690  -21.5870  -11.8200 C   0  0  0  0  0  3  0  0  0  0  0  0
   23.3730  -21.9390  -12.9990 C   0  0  0  0  0  2  0  0  0  0  0  0
   22.9470  -23.2660  -13.4600 N   0  0  0  0  0  0  0  0  0  0  0  0
   23.6430  -24.0290  -14.3380 C   0  0  0  0  0  0  0  0  0  0  0  0
   23.3280  -25.2040  -14.5550 O   0  0  0  0  0  0  0  0  0  0  0  0
   19.8390  -25.2060  -12.9560 N   0  0  0  0  0  0  0  0  0  0  0  0
   20.6130  -24.3020  -13.5680 C   0  0  0  0  0  0  0  0  0  0  0  0
   20.4090  -23.9080  -14.7180 O   0  0  0  0  0  0  0  0  0  0  0  0
   20.0870  -25.4810  -12.0160 H   0  0  0  0  0  0  0  0  0  0  0  0
   18.5990  -25.7510  -13.4940 C   0  0  0  0  0  2  0  0  0  0  0  0
   15.1320  -23.2480  -12.6730 C   0  0  0  0  0  0  0  0  0  0  0  0
   16.1470  -23.3910  -11.7060 C   0  0  0  0  0  3  0  0  0  0  0  0
   17.2690  -24.1970  -11.9680 C   0  0  0  0  0  3  0  0  0  0  0  0
   15.2550  -23.9160  -13.9100 C   0  0  0  0  0  3  0  0  0  0  0  0
   16.3790  -24.7220  -14.1730 C   0  0  0  0  0  3  0  0  0  0  0  0
   17.3920  -24.8680  -13.2030 C   0  0  0  0  0  0  0  0  0  0  0  0
   12.0500  -23.8250  -13.4360 C   0  0  0  0  0  1  0  0  0  0  0  0
   12.6440  -22.6590  -12.6700 C   0  0  0  0  0  0  0  0  0  0  0  0
   11.7790  -21.7130  -12.1590 N   0  0  0  0  0  0  0  0  0  0  0  0
   12.3510  -20.7360  -11.2390 C   0  0  0  0  0  2  0  0  0  0  0  0
   14.1370  -20.9630  -11.4540 S   0  0  0  0  0  0  0  0  0  0  0  0
   13.9290  -22.4630  -12.3460 C   0  0  0  0  0  0  0  0  0  0  0  0
   10.7680  -21.7880  -12.2290 H   0  0  0  0  0  0  0  0  0  0  0  0
   23.1310  -21.9280  -10.6130 O   0  0  0  0  0  0  0  0  0  0  0  0
   23.3670  -22.8490  -10.6480 H   0  0  0  0  0  0  0  0  0  0  0  0
   24.5740  -22.8440  -16.4980 C   0  0  1  0  0  0  0  0  0  0  0  0
   25.8580  -22.1920  -17.0690 C   0  0  0  0  0  1  0  0  0  0  0  0
   24.0940  -23.9090  -17.5200 C   0  0  0  0  0  1  0  0  0  0  0  0
   23.5000  -21.7440  -16.4240 C   0  0  0  0  0  1  0  0  0  0  0  0
   25.7640  -26.9750  -16.0980 C   0  0  0  0  0  2  0  0  0  0  0  0
   26.0190  -29.5520  -16.2950 C   0  0  0  0  0  3  0  0  0  0  0  0
   25.2720  -28.4020  -16.2650 C   0  0  0  0  0  0  0  0  0  0  0  0
   23.6580  -29.9030  -17.0250 C   0  0  0  0  0  0  0  0  0  0  0  0
   23.9310  -28.6320  -16.6590 N   0  0  0  0  0  0  0  0  0  0  0  0
   25.0780  -30.9330  -16.8230 S   0  0  0  0  0  0  0  0  0  0  0  0
   20.3480  -31.2450  -16.4140 C   0  0  0  0  0  0  0  0  0  0  0  0
   19.5610  -30.9490  -15.5110 O   0  0  0  0  0  0  0  0  0  0  0  0
   21.2910  -28.3820  -18.4240 C   0  0  0  0  0  2  0  0  0  0  0  0
   22.1070  -29.5540  -18.9720 C   0  0  0  0  0  2  0  0  0  0  0  0
   20.6060  -28.9320  -17.1630 C   0  0  0  0  0  2  0  0  0  0  0  0
   22.3970  -30.4150  -17.7400 C   0  0  0  0  0  3  0  0  0  0  0  0
   21.1440  -30.2820  -16.9620 N   0  0  0  0  0  0  0  0  0  0  0  0
   20.4100  -32.7280  -16.8570 C   0  0  0  0  0  2  0  0  0  0  0  0
   20.9090  -33.6310  -15.7010 C   0  0  0  0  0  3  0  0  0  0  0  0
   22.2240  -33.1380  -15.3110 N   0  0  0  0  0  0  0  0  0  0  0  0
   20.9910  -35.1210  -16.0020 C   0  0  0  0  0  0  0  0  0  0  0  0
   20.7870  -35.7180  -17.1840 N   0  0  0  0  0  0  0  0  0  0  0  0
   21.0730  -37.0560  -16.9840 N   0  0  0  0  0  0  0  0  0  0  0  0
   21.4320  -37.1640  -15.7000 C   0  0  0  0  0  0  0  0  0  0  0  0
   21.8890  -38.4480  -15.0760 C   0  0  0  0  0  1  0  0  0  0  0  0
   21.3650  -35.9890  -15.0380 N   0  0  0  0  0  0  0  0  0  0  0  0
   21.6110  -35.6850  -13.6830 C   0  0  0  0  0  0  0  0  0  0  0  0
   21.1470  -36.6680  -12.3300 S   0  0  0  0  0  0  0  0  0  0  0  0
   21.7210  -35.4690  -11.2050 C   0  0  0  0  0  0  0  0  0  0  0  0
   21.6040  -35.7210   -9.7360 C   0  0  0  0  0  1  0  0  0  0  0  0
   22.2270  -34.3580  -11.8450 C   0  0  0  0  0  0  0  0  0  0  0  0
   22.7240  -33.1480  -11.0960 C   0  0  0  0  0  1  0  0  0  0  0  0
   22.2030  -34.5080  -13.2770 C   0  0  0  0  0  0  0  0  0  0  0  0
   22.7770  -33.4980  -14.2180 C   0  0  0  0  0  0  0  0  0  0  0  0
   24.0780  -32.8860  -13.8960 C   0  0  0  0  0  0  0  0  0  0  0  0
   25.2020  -33.7030  -13.6540 C   0  0  0  0  0  3  0  0  0  0  0  0
   26.4410  -33.1190  -13.3300 C   0  0  0  0  0  3  0  0  0  0  0  0
   26.5540  -31.7210  -13.2370 C   0  0  0  0  0  0  0  0  0  0  0  0
   28.0690  -30.9920  -12.8530 Cl  0  0  0  0  0  0  0  0  0  0  0  0
   25.4270  -30.9120  -13.4400 C   0  0  0  0  0  3  0  0  0  0  0  0
   24.1930  -31.4860  -13.7900 C   0  0  0  0  0  3  0  0  0  0  0  0
  1  7  1  0
  1  2  1  0
  2  3  2  0
  4  2  1  0
  4  6  1  0
  5  1  1  0
  7 13  1  0
  8 16  1  0
  8  9  1  0
  9 10  1  0
 10 33  1  0
 11 10  1  0
 12 11  1  0
 12  8  1  0
 13 12  1  0
 14 13  2  0
 15 18  1  0
 16 15  1  0
 17 16  2  0
 19 25  1  0
 19 15  1  0
 20 31  1  0
 20 21  1  0
 22 21  2  0
 23 20  2  0
 24 23  1  0
 24 25  2  0
 25 22  1  0
 26 27  1  0
 27 31  2  0
 27 28  1  0
 28 29  1  0
 30 29  1  0
 31 30  1  0
 32 28  1  0
 34 33  1  0
 35 38  1  1
 35  7  1  0
 36 35  1  0
 37 35  1  0
 39  4  1  0
 40 41  2  0
 41 39  1  0
 42 44  1  0
 42 43  2  0
 43 41  1  0
 44 40  1  0
 45 46  2  0
 47 49  1  0
 48 47  1  0
 48 50  1  0
 49 51  1  0
 50 42  1  0
 50 51  1  0
 51 45  1  0
 52 45  1  0
 53 52  1  0
 53 54  1  0
 54 68  2  0
 55 53  1  0
 55 60  1  0
 56 57  1  0
 56 55  2  0
 57 58  2  0
 58 59  1  0
 58 60  1  0
 60 61  1  0
 61 67  2  0
 61 62  1  0
 62 63  1  0
 63 64  1  0
 65 63  2  0
 65 66  1  0
 67 65  1  0
 68 69  1  0
 68 67  1  0
 69 75  2  0
 69 70  1  0
 70 71  2  0
 71 72  1  0
 72 73  1  0
 74 72  2  0
 75 74  1  0
M  ISO  4   2 101   4 101  45 100  51 100
M  END
>  <TORSDO>  (55) 
F 14

>  <SCORE>  (55) 
-10.601

>  <name>  (55) 
54

>  <ligand_id>  (55) 
54

>  <original_smiles>  (55) 
[H]OC1([H])C([H])([H])N(C(=O)C([H])(N([H])C(=O)N([H])C([H])([H])c2nc(C3([H])N(C(=O)C([H])([H])C4([H])N=C(c5c([H])c([H])c(Cl)c([H])c5[H])c5c(sc(C([H])([H])[H])c5C([H])([H])[H])-n5c(C([H])([H])[H])nnc54)C([H])([H])C([H])([H])C3([H])[H])sc2[H])C(C([H])([H])[H])(C([H])([H])[H])C([H])([H])[H])C([H])(C(=O)N([H])C([H])([H])c2c([H])c([H])c(C3=C(C([H])([H])[H])N([H])C([H])([H])S3)c([H])c2[H])C1([H])[H]

>  <smiles>  (55) 
[H]OC1([H])C([H])([H])N(C(=O)C([H])(N([H])C(=O)N([H])C([H])([H])c2nc(C3([H])N(C(=O)C([H])([H])C4([H])N=C(c5c([H])c([H])c(Cl)c([H])c5[H])c5c(sc(C([H])([H])[H])c5C([H])([H])[H])-n5c(C([H])([H])[H])nnc54)C([H])([H])C([H])([H])C3([H])[H])sc2[H])C(C([H])([H])[H])(C([H])([H])[H])C([H])([H])[H])C([H])(C(=O)N([H])C([H])([H])c2c([H])c([H])c(C3=C(C([H])([H])[H])N([H])C([H])([H])S3)c([H])c2[H])C1([H])[H]

$$$$
55:0:0
     RDKit          3D

 77 84  0  0  1  0  0  0  0  0999 V2000
   24.3990  -28.1920  -16.0840 C   0  0  0  0  0  3  0  0  0  0  0  0
   22.5100  -26.9250  -17.2980 C   0  0  0  0  0  3  0  0  0  0  0  0
   23.0150  -27.5750  -16.2430 C   0  0  0  0  0  0  0  0  0  0  0  0
   21.9210  -27.8470  -15.3090 C   0  0  0  0  0  0  0  0  0  0  0  0
   21.0300  -26.6530  -17.2070 C   0  0  0  0  0  3  0  0  0  0  0  0
   20.6260  -27.2590  -15.8530 C   0  0  0  0  0  3  0  0  0  0  0  0
   21.9830  -28.4710  -14.2480 O   0  0  0  0  0  0  0  0  0  0  0  0
   25.5170  -27.1180  -15.9750 C   0  0  0  0  0  2  0  0  0  0  0  0
   26.1320  -26.7180  -14.8900 N   0  0  0  0  0  2  0  0  0  0  0  0
   25.9300  -24.5490  -15.5800 N   0  0  0  0  0  0  0  0  0  0  0  0
   26.5520  -25.3630  -14.7310 C   0  0  0  0  0  0  0  0  0  0  0  0
   27.2040  -24.8730  -13.7970 O   0  0  0  0  0  0  0  0  0  0  0  0
   25.6720  -24.9820  -16.4520 H   0  0  0  0  0  0  0  0  0  0  0  0
   24.9420  -23.5290  -15.2530 C   0  0  0  0  0  3  0  0  0  0  0  0
   21.8740  -23.9100  -12.7950 C   0  0  0  0  0  3  0  0  0  0  0  0
   21.4160  -22.7040  -11.9620 C   0  0  0  0  0  2  0  0  0  0  0  0
   22.6770  -21.8890  -11.7550 C   0  0  0  0  0  3  0  0  0  0  0  0
   23.5320  -22.1600  -12.9910 C   0  0  0  0  0  2  0  0  0  0  0  0
   23.0590  -23.4310  -13.5400 N   0  0  0  0  0  0  0  0  0  0  0  0
   23.7030  -24.1310  -14.5020 C   0  0  0  0  0  0  0  0  0  0  0  0
   23.3380  -25.2680  -14.7900 O   0  0  0  0  0  0  0  0  0  0  0  0
   19.9070  -25.3350  -13.0680 N   0  0  0  0  0  0  0  0  0  0  0  0
   20.6920  -24.4170  -13.6440 C   0  0  0  0  0  0  0  0  0  0  0  0
   20.4660  -23.9420  -14.7590 O   0  0  0  0  0  0  0  0  0  0  0  0
   20.1790  -25.6800  -12.1580 H   0  0  0  0  0  0  0  0  0  0  0  0
   18.6290  -25.8050  -13.5900 C   0  0  0  0  0  2  0  0  0  0  0  0
   15.2980  -23.1850  -12.6240 C   0  0  0  0  0  0  0  0  0  0  0  0
   16.3300  -23.3920  -11.6860 C   0  0  0  0  0  3  0  0  0  0  0  0
   17.4110  -24.2360  -11.9960 C   0  0  0  0  0  3  0  0  0  0  0  0
   15.3590  -23.8280  -13.8780 C   0  0  0  0  0  3  0  0  0  0  0  0
   16.4410  -24.6720  -14.1870 C   0  0  0  0  0  3  0  0  0  0  0  0
   17.4720  -24.8820  -13.2480 C   0  0  0  0  0  0  0  0  0  0  0  0
   12.1720  -23.6380  -13.2830 C   0  0  0  0  0  1  0  0  0  0  0  0
   12.8360  -22.5040  -12.5270 C   0  0  0  0  0  0  0  0  0  0  0  0
   12.0260  -21.5340  -11.9740 N   0  0  0  0  0  0  0  0  0  0  0  0
   12.6670  -20.5900  -11.0650 C   0  0  0  0  0  2  0  0  0  0  0  0
   14.4340  -20.8820  -11.3450 S   0  0  0  0  0  0  0  0  0  0  0  0
   14.1390  -22.3600  -12.2460 C   0  0  0  0  0  0  0  0  0  0  0  0
   11.0110  -21.5710  -12.0060 H   0  0  0  0  0  0  0  0  0  0  0  0
   23.3740  -22.3430  -10.6070 O   0  0  0  0  0  0  0  0  0  0  0  0
   23.5850  -23.2650  -10.7250 H   0  0  0  0  0  0  0  0  0  0  0  0
   24.6090  -22.8510  -16.6250 C   0  0  1  0  0  0  0  0  0  0  0  0
   25.8890  -22.1860  -17.1870 C   0  0  0  0  0  1  0  0  0  0  0  0
   24.0850  -23.8470  -17.6870 C   0  0  0  0  0  1  0  0  0  0  0  0
   23.5480  -21.7480  -16.4630 C   0  0  0  0  0  1  0  0  0  0  0  0
   24.5440  -29.2360  -17.2380 C   0  0  0  0  0  2  0  0  0  0  0  0
   23.3840  -30.3050  -17.2950 C   0  0  0  0  0  2  0  0  0  0  0  0
   20.5850  -31.3900  -16.9980 C   0  0  0  0  0  0  0  0  0  0  0  0
   20.1940  -30.8920  -15.9360 O   0  0  0  0  0  0  0  0  0  0  0  0
   22.2140  -30.1190  -18.2900 C   0  0  0  0  0  0  0  0  0  0  0  0
   20.9880  -30.6410  -18.0470 N   0  0  0  0  0  0  0  0  0  0  0  0
   22.4230  -29.5100  -19.3390 O   0  0  0  0  0  0  0  0  0  0  0  0
   20.3720  -30.6450  -18.8460 H   0  0  0  0  0  0  0  0  0  0  0  0
   20.6710  -32.9190  -17.1430 C   0  0  0  0  0  2  0  0  0  0  0  0
   21.1800  -33.6410  -15.8630 C   0  0  0  0  0  3  0  0  0  0  0  0
   22.5140  -33.1400  -15.5130 N   0  0  0  0  0  0  0  0  0  0  0  0
   21.2220  -35.1560  -15.9910 C   0  0  0  0  0  0  0  0  0  0  0  0
   21.0080  -35.8690  -17.1050 N   0  0  0  0  0  0  0  0  0  0  0  0
   21.2420  -37.1870  -16.7580 N   0  0  0  0  0  0  0  0  0  0  0  0
   21.5880  -37.1660  -15.4660 C   0  0  0  0  0  0  0  0  0  0  0  0
   21.9910  -38.3910  -14.7030 C   0  0  0  0  0  1  0  0  0  0  0  0
   21.5630  -35.9230  -14.9370 N   0  0  0  0  0  0  0  0  0  0  0  0
   21.8120  -35.4810  -13.6230 C   0  0  0  0  0  0  0  0  0  0  0  0
   21.3010  -36.2880  -12.1750 S   0  0  0  0  0  0  0  0  0  0  0  0
   21.9170  -34.9960  -11.1830 C   0  0  0  0  0  0  0  0  0  0  0  0
   21.7820  -35.0800   -9.6970 C   0  0  0  0  0  1  0  0  0  0  0  0
   22.4710  -33.9830  -11.9380 C   0  0  0  0  0  0  0  0  0  0  0  0
   23.0120  -32.7170  -11.3230 C   0  0  0  0  0  1  0  0  0  0  0  0
   22.4450  -34.2890  -13.3450 C   0  0  0  0  0  0  0  0  0  0  0  0
   23.0610  -33.4100  -14.3840 C   0  0  0  0  0  0  0  0  0  0  0  0
   24.4000  -32.8390  -14.1100 C   0  0  0  0  0  0  0  0  0  0  0  0
   25.4540  -33.6520  -13.6480 C   0  0  0  0  0  3  0  0  0  0  0  0
   26.7160  -33.0840  -13.3740 C   0  0  0  0  0  3  0  0  0  0  0  0
   26.9350  -31.7110  -13.5850 C   0  0  0  0  0  0  0  0  0  0  0  0
   28.4730  -31.0040  -13.2650 Cl  0  0  0  0  0  0  0  0  0  0  0  0
   25.8850  -30.8970  -14.0250 C   0  0  0  0  0  3  0  0  0  0  0  0
   24.6170  -31.4600  -14.2480 C   0  0  0  0  0  3  0  0  0  0  0  0
  1 46  1  0
  1  8  1  0
  2  5  1  0
  2  3  2  0
  3  1  1  0
  3  4  1  0
  4  7  2  0
  5  6  2  0
  6  4  1  0
  8  9  1  0
  9 11  1  0
 10 14  1  0
 10 11  1  0
 11 12  2  0
 13 10  1  0
 14 20  1  0
 15 23  1  0
 15 16  1  0
 16 17  1  0
 17 40  1  0
 18 17  1  0
 19 18  1  0
 19 15  1  0
 20 19  1  0
 21 20  2  0
 22 25  1  0
 23 22  1  0
 24 23  2  0
 26 32  1  0
 26 22  1  0
 27 38  1  0
 27 28  1  0
 29 28  2  0
 30 27  2  0
 31 30  1  0
 31 32  2  0
 32 29  1  0
 33 34  1  0
 34 38  2  0
 34 35  1  0
 35 36  1  0
 37 36  1  0
 38 37  1  0
 39 35  1  0
 41 40  1  0
 42 45  1  1
 42 14  1  0
 43 42  1  0
 44 42  1  0
 47 46  1  0
 48 49  2  0
 50 51  1  0
 50 47  1  0
 51 48  1  0
 52 50  2  0
 53 51  1  0
 54 48  1  0
 55 54  1  0
 55 56  1  0
 56 70  2  0
 57 55  1  0
 57 62  1  0
 58 59  1  0
 58 57  2  0
 59 60  2  0
 60 62  1  0
 60 61  1  0
 62 63  1  0
 63 69  2  0
 63 64  1  0
 64 65  1  0
 65 66  1  0
 67 68  1  0
 67 65  2  0
 69 67  1  0
 70 71  1  0
 70 69  1  0
 71 72  1  0
 72 73  2  0
 74 73  1  0
 74 75  1  0
 76 74  2  0
 77 71  2  0
 77 76  1  0
M  ISO  4   9 101  11 101  48 100  51 100
M  END
>  <TORSDO>  (56) 
F 17

>  <SCORE>  (56) 
-12.845

>  <name>  (56) 
55

>  <ligand_id>  (56) 
55

>  <original_smiles>  (56) 
[H]OC1([H])C([H])([H])N(C(=O)C([H])(N([H])C(=O)N=C([H])C([H])(C2=C([H])C([H])([H])C([H])([H])C2=O)C([H])([H])C([H])([H])C(=O)N([H])C(=O)C([H])([H])C2([H])N=C(c3c([H])c([H])c(Cl)c([H])c3[H])c3c(sc(C([H])([H])[H])c3C([H])([H])[H])-n3c(C([H])([H])[H])nnc32)C(C([H])([H])[H])(C([H])([H])[H])C([H])([H])[H])C([H])(C(=O)N([H])C([H])([H])c2c([H])c([H])c(C3=C(C([H])([H])[H])N([H])C([H])([H])S3)c([H])c2[H])C1([H])[H]

>  <smiles>  (56) 
[H]OC1([H])C([H])([H])N(C(=O)C([H])(N([H])C(=O)N=C([H])C([H])(C2=C([H])C([H])([H])C([H])([H])C2=O)C([H])([H])C([H])([H])C(=O)N([H])C(=O)C([H])([H])C2([H])N=C(c3c([H])c([H])c(Cl)c([H])c3[H])c3c(sc(C([H])([H])[H])c3C([H])([H])[H])-n3c(C([H])([H])[H])nnc32)C(C([H])([H])[H])(C([H])([H])[H])C([H])([H])[H])C([H])(C(=O)N([H])C([H])([H])c2c([H])c([H])c(C3=C(C([H])([H])[H])N([H])C([H])([H])S3)c([H])c2[H])C1([H])[H]

$$$$
56:0:0
     RDKit          3D

 77 83  0  0  1  0  0  0  0  0999 V2000
   25.8600  -24.4480  -15.1680 N   0  0  0  0  0  0  0  0  0  0  0  0
   26.8280  -24.9100  -14.3740 C   0  0  0  0  0  0  0  0  0  0  0  0
   27.1420  -24.3490  -13.3180 O   0  0  0  0  0  0  0  0  0  0  0  0
   27.2760  -26.6050  -16.0690 C   0  0  0  0  0  0  0  0  0  0  0  0
   27.3550  -26.0800  -14.8160 N   0  0  0  0  0  0  0  0  0  0  0  0
   27.2000  -25.9150  -17.0910 O   0  0  0  0  0  0  0  0  0  0  0  0
   25.7520  -24.9390  -16.0440 H   0  0  0  0  0  0  0  0  0  0  0  0
   27.7930  -26.6550  -14.1140 H   0  0  0  0  0  0  0  0  0  0  0  0
   24.9030  -23.3750  -14.9970 C   0  0  0  0  0  3  0  0  0  0  0  0
   21.6880  -23.6190  -12.7500 C   0  0  0  0  0  3  0  0  0  0  0  0
   21.1700  -22.3590  -12.0370 C   0  0  0  0  0  2  0  0  0  0  0  0
   22.4090  -21.5180  -11.8100 C   0  0  0  0  0  3  0  0  0  0  0  0
   23.3430  -21.8750  -12.9660 C   0  0  0  0  0  2  0  0  0  0  0  0
   22.9140  -23.1910  -13.4540 N   0  0  0  0  0  0  0  0  0  0  0  0
   23.6250  -23.9580  -14.3210 C   0  0  0  0  0  0  0  0  0  0  0  0
   23.3080  -25.1290  -14.5610 O   0  0  0  0  0  0  0  0  0  0  0  0
   19.7860  -25.1130  -13.0670 N   0  0  0  0  0  0  0  0  0  0  0  0
   20.5710  -24.1920  -13.6380 C   0  0  0  0  0  0  0  0  0  0  0  0
   20.3900  -23.7650  -14.7810 O   0  0  0  0  0  0  0  0  0  0  0  0
   20.0170  -25.4160  -12.1310 H   0  0  0  0  0  0  0  0  0  0  0  0
   18.5590  -25.6430  -13.6440 C   0  0  0  0  0  2  0  0  0  0  0  0
   15.0460  -23.2590  -12.6780 C   0  0  0  0  0  0  0  0  0  0  0  0
   16.0540  -23.4580  -11.7120 C   0  0  0  0  0  3  0  0  0  0  0  0
   17.1910  -24.2240  -12.0220 C   0  0  0  0  0  3  0  0  0  0  0  0
   15.1910  -23.8310  -13.9600 C   0  0  0  0  0  3  0  0  0  0  0  0
   16.3300  -24.5980  -14.2690 C   0  0  0  0  0  3  0  0  0  0  0  0
   17.3360  -24.8000  -13.3030 C   0  0  0  0  0  0  0  0  0  0  0  0
   11.9850  -23.8070  -13.5380 C   0  0  0  0  0  1  0  0  0  0  0  0
   12.5510  -22.7030  -12.6680 C   0  0  0  0  0  0  0  0  0  0  0  0
   11.6640  -21.8150  -12.0930 N   0  0  0  0  0  0  0  0  0  0  0  0
   12.2080  -20.9110  -11.0860 C   0  0  0  0  0  2  0  0  0  0  0  0
   14.0010  -21.0980  -11.2870 S   0  0  0  0  0  0  0  0  0  0  0  0
   13.8280  -22.5190  -12.3050 C   0  0  0  0  0  0  0  0  0  0  0  0
   10.6570  -21.8980  -12.1840 H   0  0  0  0  0  0  0  0  0  0  0  0
   23.0310  -21.8780  -10.5870 O   0  0  0  0  0  0  0  0  0  0  0  0
   23.2560  -22.8020  -10.6220 H   0  0  0  0  0  0  0  0  0  0  0  0
   24.6470  -22.8080  -16.4430 C   0  0  1  0  0  0  0  0  0  0  0  0
   25.9480  -22.1470  -16.9580 C   0  0  0  0  0  1  0  0  0  0  0  0
   24.2250  -23.8900  -17.4710 C   0  0  0  0  0  1  0  0  0  0  0  0
   23.5610  -21.7140  -16.4350 C   0  0  0  0  0  1  0  0  0  0  0  0
   27.1200  -28.1130  -16.2440 C   0  0  0  0  0  2  0  0  0  0  0  0
   25.1700  -29.5480  -16.9380 C   0  0  0  0  0  0  0  0  0  0  0  0
   25.7150  -28.3720  -16.5940 N   0  0  0  0  0  0  0  0  0  0  0  0
   25.7810  -30.6190  -16.9070 O   0  0  0  0  0  0  0  0  0  0  0  0
   25.1120  -27.5660  -16.6940 H   0  0  0  0  0  0  0  0  0  0  0  0
   23.6740  -29.4890  -17.4060 C   0  0  0  0  0  0  0  0  0  0  0  0
   22.9300  -30.5670  -17.1040 N   0  0  0  0  0  0  0  0  0  0  0  0
   23.2480  -28.5070  -18.0210 O   0  0  0  0  0  0  0  0  0  0  0  0
   23.2820  -31.3750  -16.6000 H   0  0  0  0  0  0  0  0  0  0  0  0
   20.8330  -31.5680  -16.9410 C   0  0  0  0  0  0  0  0  0  0  0  0
   20.1550  -31.0990  -16.0230 O   0  0  0  0  0  0  0  0  0  0  0  0
   21.6500  -30.8070  -17.6830 N   0  0  0  0  0  0  0  0  0  0  0  0
   21.8480  -31.1560  -18.6120 H   0  0  0  0  0  0  0  0  0  0  0  0
   20.9570  -33.0870  -17.1210 C   0  0  0  0  0  2  0  0  0  0  0  0
   21.4630  -33.7790  -15.8260 C   0  0  0  0  0  3  0  0  0  0  0  0
   22.7920  -33.2640  -15.4740 N   0  0  0  0  0  0  0  0  0  0  0  0
   21.5080  -35.2950  -15.9030 C   0  0  0  0  0  0  0  0  0  0  0  0
   21.3300  -36.0470  -16.9960 N   0  0  0  0  0  0  0  0  0  0  0  0
   21.5540  -37.3490  -16.5950 N   0  0  0  0  0  0  0  0  0  0  0  0
   21.8610  -37.2820  -15.2950 C   0  0  0  0  0  0  0  0  0  0  0  0
   22.2400  -38.4790  -14.4750 C   0  0  0  0  0  1  0  0  0  0  0  0
   21.8210  -36.0220  -14.8120 N   0  0  0  0  0  0  0  0  0  0  0  0
   22.0370  -35.5300  -13.5090 C   0  0  0  0  0  0  0  0  0  0  0  0
   21.4850  -36.2820  -12.0470 S   0  0  0  0  0  0  0  0  0  0  0  0
   22.0760  -34.9550  -11.0880 C   0  0  0  0  0  0  0  0  0  0  0  0
   21.8980  -34.9840   -9.6040 C   0  0  0  0  0  1  0  0  0  0  0  0
   22.6540  -33.9720  -11.8630 C   0  0  0  0  0  0  0  0  0  0  0  0
   23.1820  -32.6870  -11.2790 C   0  0  0  0  0  1  0  0  0  0  0  0
   22.6650  -34.3290  -13.2600 C   0  0  0  0  0  0  0  0  0  0  0  0
   23.3060  -33.4870  -14.3220 C   0  0  0  0  0  0  0  0  0  0  0  0
   24.6280  -32.8930  -14.0400 C   0  0  0  0  0  0  0  0  0  0  0  0
   25.6930  -33.7030  -13.5910 C   0  0  0  0  0  3  0  0  0  0  0  0
   26.9450  -33.1270  -13.3020 C   0  0  0  0  0  3  0  0  0  0  0  0
   27.1330  -31.7410  -13.4500 C   0  0  0  0  0  0  0  0  0  0  0  0
   28.6630  -31.0280  -13.1040 Cl  0  0  0  0  0  0  0  0  0  0  0  0
   26.0610  -30.9310  -13.8660 C   0  0  0  0  0  3  0  0  0  0  0  0
   24.8160  -31.5030  -14.1760 C   0  0  0  0  0  3  0  0  0  0  0  0
  1  9  1  0
  1  2  1  0
  2  3  2  0
  4  5  1  0
  5  2  1  0
  5  8  1  0
  6  4  2  0
  7  1  1  0
  9 15  1  0
 10 18  1  0
 10 11  1  0
 11 12  1  0
 12 35  1  0
 13 12  1  0
 14 13  1  0
 14 10  1  0
 15 14  1  0
 16 15  2  0
 17 20  1  0
 18 17  1  0
 19 18  2  0
 21 27  1  0
 21 17  1  0
 22 33  1  0
 22 23  1  0
 24 23  2  0
 25 22  2  0
 26 25  1  0
 26 27  2  0
 27 24  1  0
 28 29  1  0
 29 33  2  0
 29 30  1  0
 30 31  1  0
 32 31  1  0
 33 32  1  0
 34 30  1  0
 36 35  1  0
 37 40  1  1
 37  9  1  0
 38 37  1  0
 39 37  1  0
 41  4  1  0
 42 44  2  0
 42 43  1  0
 43 41  1  0
 45 43  1  0
 46 47  1  0
 46 42  1  0
 47 49  1  0
 48 46  2  0
 50 51  2  0
 52 47  1  0
 52 50  1  0
 53 52  1  0
 54 50  1  0
 55 54  1  0
 55 56  1  0
 56 70  2  0
 57 55  1  0
 57 62  1  0
 58 59  1  0
 58 57  2  0
 59 60  2  0
 60 62  1  0
 60 61  1  0
 62 63  1  0
 63 69  2  0
 63 64  1  0
 64 65  1  0
 65 66  1  0
 67 68  1  0
 67 65  2  0
 69 67  1  0
 70 71  1  0
 70 69  1  0
 71 72  1  0
 72 73  2  0
 74 73  1  0
 74 75  1  0
 76 74  2  0
 77 71  2  0
 77 76  1  0
M  ISO  4   2 101   5 101  50 100  52 100
M  END
>  <TORSDO>  (57) 
F 15

>  <SCORE>  (57) 
-12.275

>  <name>  (57) 
56

>  <ligand_id>  (57) 
56

>  <original_smiles>  (57) 
[H]OC1([H])C([H])([H])N(C(=O)C([H])(N([H])C(=O)N([H])C(=O)C([H])([H])N([H])C(=O)C(=O)N([H])N([H])C(=O)C([H])([H])C2([H])N=C(c3c([H])c([H])c(Cl)c([H])c3[H])c3c(sc(C([H])([H])[H])c3C([H])([H])[H])-n3c(C([H])([H])[H])nnc32)C(C([H])([H])[H])(C([H])([H])[H])C([H])([H])[H])C([H])(C(=O)N([H])C([H])([H])c2c([H])c([H])c(C3=C(C([H])([H])[H])N([H])C([H])([H])S3)c([H])c2[H])C1([H])[H]

>  <smiles>  (57) 
[H]OC1([H])C([H])([H])N(C(=O)C([H])(N([H])C(=O)N([H])C(=O)C([H])([H])N([H])C(=O)C(=O)N([H])N([H])C(=O)C([H])([H])C2([H])N=C(c3c([H])c([H])c(Cl)c([H])c3[H])c3c(sc(C([H])([H])[H])c3C([H])([H])[H])-n3c(C([H])([H])[H])nnc32)C(C([H])([H])[H])(C([H])([H])[H])C([H])([H])[H])C([H])(C(=O)N([H])C([H])([H])c2c([H])c([H])c(C3=C(C([H])([H])[H])N([H])C([H])([H])S3)c([H])c2[H])C1([H])[H]

$$$$
57:0:0
     RDKit          3D

 81 87  0  0  1  0  0  0  0  0999 V2000
   23.8740  -22.7530  -19.8640 N   0  0  0  0  0  4  0  0  0  0  0  0
   22.9020  -22.9600  -20.0150 H   0  0  0  0  0  0  0  0  0  0  0  0
   24.2230  -23.4390  -19.2100 H   0  0  0  0  0  0  0  0  0  0  0  0
   26.0130  -24.6050  -21.6260 N   0  0  0  0  0  0  0  0  0  0  0  0
   24.7650  -24.3680  -21.2520 C   0  0  0  0  0  0  0  0  0  0  0  0
   23.9600  -25.2370  -20.8980 O   0  0  0  0  0  0  0  0  0  0  0  0
   24.6210  -23.0440  -21.1210 N   0  0  0  0  0  0  0  0  0  0  0  0
   26.5290  -23.8250  -22.0020 H   0  0  0  0  0  0  0  0  0  0  0  0
   25.3320  -22.3800  -21.3850 H   0  0  0  0  0  0  0  0  0  0  0  0
   26.8960  -25.6080  -21.0380 C   0  0  0  0  0  3  0  0  0  0  0  0
   29.6850  -24.5650  -18.4540 C   0  0  0  0  0  3  0  0  0  0  0  0
   29.9240  -25.4190  -17.2000 C   0  0  0  0  0  2  0  0  0  0  0  0
   28.5730  -26.0360  -16.9080 C   0  0  0  0  0  3  0  0  0  0  0  0
   27.8950  -26.1720  -18.2720 C   0  0  0  0  0  2  0  0  0  0  0  0
   28.5590  -25.2110  -19.1590 N   0  0  0  0  0  0  0  0  0  0  0  0
   28.1150  -24.8760  -20.3950 C   0  0  0  0  0  0  0  0  0  0  0  0
   28.6370  -23.9710  -21.0440 O   0  0  0  0  0  0  0  0  0  0  0  0
   31.5010  -25.5770  -19.7360 N   0  0  0  0  0  0  0  0  0  0  0  0
   30.9990  -24.4400  -19.2440 C   0  0  0  0  0  0  0  0  0  0  0  0
   31.4980  -23.3340  -19.4630 O   0  0  0  0  0  0  0  0  0  0  0  0
   31.0490  -26.4420  -19.4660 H   0  0  0  0  0  0  0  0  0  0  0  0
   32.6110  -25.6680  -20.6770 C   0  0  0  0  0  2  0  0  0  0  0  0
   33.7320  -29.7710  -21.6200 C   0  0  0  0  0  0  0  0  0  0  0  0
   34.4940  -29.0200  -20.7030 C   0  0  0  0  0  3  0  0  0  0  0  0
   34.1320  -27.6970  -20.3930 C   0  0  0  0  0  3  0  0  0  0  0  0
   32.5980  -29.1850  -22.2230 C   0  0  0  0  0  3  0  0  0  0  0  0
   32.2360  -27.8600  -21.9120 C   0  0  0  0  0  3  0  0  0  0  0  0
   33.0010  -27.1060  -20.9970 C   0  0  0  0  0  0  0  0  0  0  0  0
   33.3170  -32.5530  -20.0360 C   0  0  0  0  0  1  0  0  0  0  0  0
   34.0450  -32.2940  -21.3400 C   0  0  0  0  0  0  0  0  0  0  0  0
   34.5710  -33.3780  -22.0120 N   0  0  0  0  0  0  0  0  0  0  0  0
   35.0580  -33.1320  -23.3650 C   0  0  0  0  0  2  0  0  0  0  0  0
   35.1050  -31.3230  -23.4650 S   0  0  0  0  0  0  0  0  0  0  0  0
   34.1750  -31.1280  -21.9880 C   0  0  0  0  0  0  0  0  0  0  0  0
   34.4490  -34.3370  -21.7030 H   0  0  0  0  0  0  0  0  0  0  0  0
   27.7970  -25.1610  -16.1070 O   0  0  0  0  0  0  0  0  0  0  0  0
   28.1900  -25.1320  -15.2380 H   0  0  0  0  0  0  0  0  0  0  0  0
   27.3070  -26.5730  -22.2030 C   0  0  1  0  0  0  0  0  0  0  0  0
   26.2820  -27.7270  -22.2790 C   0  0  0  0  0  1  0  0  0  0  0  0
   27.3530  -25.8830  -23.5910 C   0  0  0  0  0  1  0  0  0  0  0  0
   28.6880  -27.2120  -21.9490 C   0  0  0  0  0  1  0  0  0  0  0  0
   23.9960  -20.1450  -19.7890 C   0  0  0  0  0  0  0  0  0  0  0  0
   24.0250  -21.3980  -19.2110 C   0  0  0  0  0  0  0  0  0  0  0  0
   24.2220  -21.7080  -17.7280 C   0  0  0  0  0  1  0  0  0  0  0  0
   23.9730  -19.9000  -21.2510 C   0  0  0  0  0  3  0  0  0  0  0  0
   22.8850  -19.7510  -22.0690 C   0  0  0  0  0  0  0  0  0  0  0  0
   21.4560  -20.1010  -21.6540 C   0  0  0  0  0  1  0  0  0  0  0  0
   23.0140  -19.1590  -23.5010 C   0  0  0  0  0  2  0  0  0  0  0  0
   25.1930  -19.5620  -24.7590 C   0  0  0  0  0  0  0  0  0  0  0  0
   25.7650  -18.6520  -24.1750 O   0  0  0  0  0  0  0  0  0  0  0  0
   23.9030  -19.8420  -24.4740 N   0  0  0  0  0  0  0  0  0  0  0  0
   23.4620  -20.5210  -25.0810 H   0  0  0  0  0  0  0  0  0  0  0  0
   25.8260  -20.1860  -26.0240 C   0  0  0  0  0  2  0  0  0  0  0  0
   24.7000  -20.8520  -26.8600 C   0  0  0  0  0  3  0  0  0  0  0  0
   24.6700  -22.2700  -26.5150 N   0  0  0  0  0  0  0  0  0  0  0  0
   24.7820  -20.7230  -28.3690 C   0  0  0  0  0  0  0  0  0  0  0  0
   25.7990  -20.2330  -29.0870 N   0  0  0  0  0  0  0  0  0  0  0  0
   25.4520  -20.4340  -30.4110 N   0  0  0  0  0  0  0  0  0  0  0  0
   24.2600  -21.0400  -30.3880 C   0  0  0  0  0  0  0  0  0  0  0  0
   23.5460  -21.5020  -31.6220 C   0  0  0  0  0  1  0  0  0  0  0  0
   23.7860  -21.2160  -29.1360 N   0  0  0  0  0  0  0  0  0  0  0  0
   22.5670  -21.7690  -28.6830 C   0  0  0  0  0  0  0  0  0  0  0  0
   21.0130  -21.5060  -29.4060 S   0  0  0  0  0  0  0  0  0  0  0  0
   20.2240  -22.4100  -28.1440 C   0  0  0  0  0  0  0  0  0  0  0  0
   18.7380  -22.5820  -28.1790 C   0  0  0  0  0  1  0  0  0  0  0  0
   21.1150  -22.8770  -27.2030 C   0  0  0  0  0  0  0  0  0  0  0  0
   20.6700  -23.6380  -25.9800 C   0  0  0  0  0  1  0  0  0  0  0  0
   22.4730  -22.5440  -27.5470 C   0  0  0  0  0  0  0  0  0  0  0  0
   23.6610  -23.0060  -26.7660 C   0  0  0  0  0  0  0  0  0  0  0  0
   23.7070  -24.3990  -26.2750 C   0  0  0  0  0  0  0  0  0  0  0  0
   23.7220  -25.4720  -27.1870 C   0  0  0  0  0  3  0  0  0  0  0  0
   23.7400  -26.7970  -26.7110 C   0  0  0  0  0  3  0  0  0  0  0  0
   23.7370  -27.0500  -25.3270 C   0  0  0  0  0  0  0  0  0  0  0  0
   23.7460  -28.6720  -24.7460 Cl  0  0  0  0  0  0  0  0  0  0  0  0
   23.7460  -25.9820  -24.4150 C   0  0  0  0  0  3  0  0  0  0  0  0
   23.7480  -24.6620  -24.8920 C   0  0  0  0  0  3  0  0  0  0  0  0
   24.1300  -18.9690  -19.0410 N   0  0  0  0  0  0  0  0  0  0  0  0
   23.5900  -18.9370  -18.1820 H   0  0  0  0  0  0  0  0  0  0  0  0
   25.0960  -17.9590  -19.2210 N   0  0  0  0  0  0  0  0  0  0  0  0
   25.7420  -18.2280  -19.9620 H   0  0  0  0  0  0  0  0  0  0  0  0
   25.6360  -17.8440  -18.3630 H   0  0  0  0  0  0  0  0  0  0  0  0
  1 43  1  0
  1  3  1  0
  2  1  1  0
  4  5  1  0
  4 10  1  0
  5  7  1  0
  5  6  2  0
  7  1  1  0
  8  4  1  0
  9  7  1  0
 10 16  1  0
 11 19  1  0
 11 12  1  0
 12 13  1  0
 13 36  1  0
 14 13  1  0
 15 11  1  0
 15 14  1  0
 16 15  1  0
 17 16  2  0
 18 21  1  0
 18 19  1  0
 20 19  2  0
 22 18  1  0
 23 24  1  0
 24 25  2  0
 26 27  1  0
 26 23  2  0
 27 28  2  0
 28 22  1  0
 28 25  1  0
 30 29  1  0
 31 35  1  0
 31 30  1  0
 32 31  1  0
 33 32  1  0
 33 34  1  0
 34 23  1  0
 34 30  2  0
 36 37  1  0
 38 41  1  1
 38 10  1  0
 39 38  1  0
 40 38  1  0
 42 43  2  0
 42 77  1  0
 43 44  1  0
 45 42  1  0
 46 47  1  0
 46 45  2  0
 48 46  1  0
 49 51  1  0
 49 50  2  0
 51 48  1  0
 52 51  1  0
 53 49  1  0
 54 55  1  0
 54 53  1  0
 56 54  1  0
 57 56  2  0
 58 59  2  0
 58 57  1  0
 59 61  1  0
 60 59  1  0
 61 62  1  0
 61 56  1  0
 62 68  2  0
 63 62  1  0
 63 64  1  0
 64 66  2  0
 65 64  1  0
 66 67  1  0
 68 66  1  0
 68 69  1  0
 69 55  2  0
 69 70  1  0
 70 76  1  0
 71 72  1  0
 71 70  2  0
 72 73  2  0
 73 74  1  0
 73 75  1  0
 76 75  2  0
 77 78  1  0
 79 77  1  0
 79 81  1  0
 80 79  1  0
M  ISO  4   5 101   7 101  49 100  51 100
M  END
>  <TORSDO>  (58) 
F 18

>  <SCORE>  (58) 
-3.236

>  <name>  (58) 
57

>  <ligand_id>  (58) 
57

>  <original_smiles>  (58) 
[H]OC1([H])C([H])([H])N(C(=O)C([H])(N([H])C(=O)N([H])[N+]([H])([H])C(=C(C([H])=C(C([H])([H])[H])C([H])([H])N([H])C(=O)C([H])([H])C2([H])N=C(c3c([H])c([H])c(Cl)c([H])c3[H])c3c(sc(C([H])([H])[H])c3C([H])([H])[H])-n3c(C([H])([H])[H])nnc32)N([H])N([H])[H])C([H])([H])[H])C(C([H])([H])[H])(C([H])([H])[H])C([H])([H])[H])C([H])(C(=O)N([H])C([H])([H])c2c([H])c([H])c(C3=C(C([H])([H])[H])N([H])C([H])([H])S3)c([H])c2[H])C1([H])[H]

>  <smiles>  (58) 
[H]OC1([H])C([H])([H])N(C(=O)C([H])(N([H])C(=O)N([H])[N+]([H])([H])C(=C(C([H])=C(C([H])([H])[H])C([H])([H])N([H])C(=O)C([H])([H])C2([H])N=C(c3c([H])c([H])c(Cl)c([H])c3[H])c3c(sc(C([H])([H])[H])c3C([H])([H])[H])-n3c(C([H])([H])[H])nnc32)N([H])N([H])[H])C([H])([H])[H])C(C([H])([H])[H])(C([H])([H])[H])C([H])([H])[H])C([H])(C(=O)N([H])C([H])([H])c2c([H])c([H])c(C3=C(C([H])([H])[H])N([H])C([H])([H])S3)c([H])c2[H])C1([H])[H]

$$$$
58:0:0
     RDKit          3D

 81 88  0  0  1  0  0  0  0  0999 V2000
   26.3500  -28.0880  -16.8830 C   0  0  0  0  0  2  0  0  0  0  0  0
   25.9760  -24.6010  -15.3040 N   0  0  0  0  0  0  0  0  0  0  0  0
   26.8520  -25.2580  -14.5490 C   0  0  0  0  0  0  0  0  0  0  0  0
   27.2200  -24.8370  -13.4430 O   0  0  0  0  0  0  0  0  0  0  0  0
   27.0900  -26.7920  -16.4230 C   0  0  0  0  0  0  0  0  0  0  0  0
   27.1600  -26.4640  -15.0990 N   0  0  0  0  0  0  0  0  0  0  0  0
   27.5740  -26.0380  -17.2760 O   0  0  0  0  0  0  0  0  0  0  0  0
   25.8060  -25.0000  -16.2150 H   0  0  0  0  0  0  0  0  0  0  0  0
   27.3880  -27.2030  -14.4510 H   0  0  0  0  0  0  0  0  0  0  0  0
   25.0610  -23.5220  -15.0200 C   0  0  0  0  0  3  0  0  0  0  0  0
   21.8320  -23.8300  -12.7960 C   0  0  0  0  0  3  0  0  0  0  0  0
   21.3170  -22.5910  -12.0460 C   0  0  0  0  0  2  0  0  0  0  0  0
   22.5590  -21.7690  -11.7790 C   0  0  0  0  0  3  0  0  0  0  0  0
   23.5000  -22.0890  -12.9410 C   0  0  0  0  0  2  0  0  0  0  0  0
   23.0660  -23.3850  -13.4760 N   0  0  0  0  0  0  0  0  0  0  0  0
   23.7770  -24.1240  -14.3660 C   0  0  0  0  0  0  0  0  0  0  0  0
   23.4530  -25.2840  -14.6460 O   0  0  0  0  0  0  0  0  0  0  0  0
   19.9260  -25.3020  -13.1810 N   0  0  0  0  0  0  0  0  0  0  0  0
   20.7180  -24.3630  -13.7130 C   0  0  0  0  0  0  0  0  0  0  0  0
   20.5450  -23.8920  -14.8380 O   0  0  0  0  0  0  0  0  0  0  0  0
   20.1530  -25.6450  -12.2580 H   0  0  0  0  0  0  0  0  0  0  0  0
   18.6970  -25.8020  -13.7840 C   0  0  0  0  0  2  0  0  0  0  0  0
   15.2110  -23.3690  -12.8450 C   0  0  0  0  0  0  0  0  0  0  0  0
   16.2250  -23.5530  -11.8840 C   0  0  0  0  0  3  0  0  0  0  0  0
   17.3540  -24.3360  -12.1850 C   0  0  0  0  0  3  0  0  0  0  0  0
   15.3390  -23.9720  -14.1150 C   0  0  0  0  0  3  0  0  0  0  0  0
   16.4710  -24.7550  -14.4150 C   0  0  0  0  0  3  0  0  0  0  0  0
   17.4840  -24.9420  -13.4530 C   0  0  0  0  0  0  0  0  0  0  0  0
   12.1280  -23.9640  -13.5920 C   0  0  0  0  0  1  0  0  0  0  0  0
   12.7160  -22.8140  -12.7990 C   0  0  0  0  0  0  0  0  0  0  0  0
   11.8450  -21.8960  -12.2490 N   0  0  0  0  0  0  0  0  0  0  0  0
   12.4140  -20.9370  -11.3090 C   0  0  0  0  0  2  0  0  0  0  0  0
   14.2000  -21.1370  -11.5460 S   0  0  0  0  0  0  0  0  0  0  0  0
   14.0020  -22.6110  -12.4810 C   0  0  0  0  0  0  0  0  0  0  0  0
   10.8340  -21.9840  -12.3100 H   0  0  0  0  0  0  0  0  0  0  0  0
   23.1690  -22.1790  -10.5660 O   0  0  0  0  0  0  0  0  0  0  0  0
   23.3850  -23.1040  -10.6370 H   0  0  0  0  0  0  0  0  0  0  0  0
   24.8010  -22.8490  -16.4180 C   0  0  1  0  0  0  0  0  0  0  0  0
   26.1260  -22.2320  -16.9390 C   0  0  0  0  0  1  0  0  0  0  0  0
   24.2900  -23.8450  -17.4940 C   0  0  0  0  0  1  0  0  0  0  0  0
   23.7750  -21.7050  -16.3150 C   0  0  0  0  0  1  0  0  0  0  0  0
   25.3550  -27.8900  -18.0080 N   0  0  0  0  0  0  0  0  0  0  0  0
   25.3900  -26.5200  -20.0120 C   0  0  0  0  0  0  0  0  0  0  0  0
   25.9300  -27.4760  -19.2360 N   0  0  0  0  0  0  0  0  0  0  0  0
   24.2750  -26.0310  -19.8110 O   0  0  0  0  0  0  0  0  0  0  0  0
   26.8530  -27.8200  -19.4700 H   0  0  0  0  0  0  0  0  0  0  0  0
   26.6070  -24.5410  -21.0160 C   0  0  0  0  0  1  0  0  0  0  0  0
   25.5140  -26.2500  -22.5360 C   0  0  0  0  0  1  0  0  0  0  0  0
   26.2350  -26.0250  -21.1960 C   0  0  0  0  0  3  0  0  0  0  0  0
   22.9780  -28.8420  -18.7230 C   0  0  0  0  0  2  0  0  0  0  0  0
   23.8220  -29.8590  -17.1080 C   0  0  0  0  0  2  0  0  0  0  0  0
   22.5510  -30.1040  -17.9390 C   0  0  0  0  0  3  0  0  0  0  0  0
   24.4370  -29.0420  -18.2460 C   0  0  0  0  0  3  0  0  0  0  0  0
   20.5730  -30.8290  -16.4730 C   0  0  0  0  0  0  0  0  0  0  0  0
   19.9810  -30.4360  -15.4700 O   0  0  0  0  0  0  0  0  0  0  0  0
   21.3140  -29.9250  -17.1580 N   0  0  0  0  0  0  0  0  0  0  0  0
   21.1650  -28.9770  -16.8440 H   0  0  0  0  0  0  0  0  0  0  0  0
   20.4900  -32.3320  -16.8410 C   0  0  0  0  0  2  0  0  0  0  0  0
   20.9450  -33.2440  -15.6630 C   0  0  0  0  0  3  0  0  0  0  0  0
   22.3260  -32.8810  -15.3590 N   0  0  0  0  0  0  0  0  0  0  0  0
   20.8580  -34.7490  -15.9000 C   0  0  0  0  0  0  0  0  0  0  0  0
   20.5110  -35.3640  -17.0380 N   0  0  0  0  0  0  0  0  0  0  0  0
   20.6700  -36.7170  -16.8000 N   0  0  0  0  0  0  0  0  0  0  0  0
   21.1040  -36.8170  -15.5400 C   0  0  0  0  0  0  0  0  0  0  0  0
   21.4690  -38.1190  -14.8920 C   0  0  0  0  0  1  0  0  0  0  0  0
   21.2050  -35.6170  -14.9260 N   0  0  0  0  0  0  0  0  0  0  0  0
   21.5720  -35.2980  -13.6010 C   0  0  0  0  0  0  0  0  0  0  0  0
   21.1050  -36.1820  -12.1840 S   0  0  0  0  0  0  0  0  0  0  0  0
   21.8790  -35.0160  -11.1470 C   0  0  0  0  0  0  0  0  0  0  0  0
   21.8350  -35.2070   -9.6660 C   0  0  0  0  0  1  0  0  0  0  0  0
   22.4510  -33.9860  -11.8610 C   0  0  0  0  0  0  0  0  0  0  0  0
   23.1250  -32.8110  -11.1950 C   0  0  0  0  0  1  0  0  0  0  0  0
   22.3070  -34.1770  -13.2800 C   0  0  0  0  0  0  0  0  0  0  0  0
   22.9140  -33.2640  -14.2930 C   0  0  0  0  0  0  0  0  0  0  0  0
   24.2980  -32.7950  -14.0780 C   0  0  0  0  0  0  0  0  0  0  0  0
   25.3170  -33.7050  -13.7290 C   0  0  0  0  0  3  0  0  0  0  0  0
   26.6300  -33.2420  -13.5130 C   0  0  0  0  0  3  0  0  0  0  0  0
   26.9290  -31.8760  -13.6590 C   0  0  0  0  0  0  0  0  0  0  0  0
   28.5320  -31.3000  -13.4020 Cl  0  0  0  0  0  0  0  0  0  0  0  0
   25.9110  -30.9670  -13.9830 C   0  0  0  0  0  3  0  0  0  0  0  0
   24.5970  -31.4230  -14.1760 C   0  0  0  0  0  3  0  0  0  0  0  0
  1  5  1  0
  2 10  1  0
  2  3  1  0
  3  4  2  0
  5  6  1  0
  6  3  1  0
  6  9  1  0
  7  5  2  0
  8  2  1  0
 10 16  1  0
 11 19  1  0
 11 12  1  0
 12 13  1  0
 13 36  1  0
 14 13  1  0
 15 14  1  0
 15 11  1  0
 16 15  1  0
 17 16  2  0
 18 21  1  0
 19 18  1  0
 20 19  2  0
 22 28  1  0
 22 18  1  0
 23 34  1  0
 23 24  1  0
 25 24  2  0
 26 23  2  0
 27 26  1  0
 27 28  2  0
 28 25  1  0
 29 30  1  0
 30 34  2  0
 30 31  1  0
 31 32  1  0
 33 32  1  0
 34 33  1  0
 35 31  1  0
 37 36  1  0
 38 41  1  1
 38 10  1  0
 39 38  1  0
 40 38  1  0
 42  1  1  0
 43 45  2  0
 43 44  1  0
 44 42  1  0
 46 44  1  0
 48 49  1  0
 49 47  1  0
 49 43  1  0
 50 53  1  0
 50 52  1  0
 52 56  1  0
 52 51  1  0
 53 42  1  0
 53 51  1  0
 54 55  2  0
 56 57  1  0
 56 54  1  0
 58 54  1  0
 59 58  1  0
 59 60  1  0
 60 74  2  0
 61 59  1  0
 61 66  1  0
 62 63  1  0
 62 61  2  0
 63 64  2  0
 64 66  1  0
 64 65  1  0
 66 67  1  0
 67 73  2  0
 67 68  1  0
 68 69  1  0
 69 70  1  0
 71 72  1  0
 71 69  2  0
 73 71  1  0
 74 75  1  0
 74 73  1  0
 75 76  1  0
 76 77  2  0
 78 77  1  0
 78 79  1  0
 80 78  2  0
 81 75  2  0
 81 80  1  0
M  ISO  4   3 101   6 101  54 100  56 100
M  END
>  <TORSDO>  (59) 
F 17

>  <SCORE>  (59) 
-11.097

>  <name>  (59) 
58

>  <ligand_id>  (59) 
58

>  <original_smiles>  (59) 
[H]OC1([H])C([H])([H])N(C(=O)C([H])(N([H])C(=O)N([H])C(=O)C([H])([H])N(N([H])C(=O)C([H])(C([H])([H])[H])C([H])([H])[H])C2([H])C([H])([H])C([H])(N([H])C(=O)C([H])([H])C3([H])N=C(c4c([H])c([H])c(Cl)c([H])c4[H])c4c(sc(C([H])([H])[H])c4C([H])([H])[H])-n4c(C([H])([H])[H])nnc43)C2([H])[H])C(C([H])([H])[H])(C([H])([H])[H])C([H])([H])[H])C([H])(C(=O)N([H])C([H])([H])c2c([H])c([H])c(C3=C(C([H])([H])[H])N([H])C([H])([H])S3)c([H])c2[H])C1([H])[H]

>  <smiles>  (59) 
[H]OC1([H])C([H])([H])N(C(=O)C([H])(N([H])C(=O)N([H])C(=O)C([H])([H])N(N([H])C(=O)C([H])(C([H])([H])[H])C([H])([H])[H])C2([H])C([H])([H])C([H])(N([H])C(=O)C([H])([H])C3([H])N=C(c4c([H])c([H])c(Cl)c([H])c4[H])c4c(sc(C([H])([H])[H])c4C([H])([H])[H])-n4c(C([H])([H])[H])nnc43)C2([H])[H])C(C([H])([H])[H])(C([H])([H])[H])C([H])([H])[H])C([H])(C(=O)N([H])C([H])([H])c2c([H])c([H])c(C3=C(C([H])([H])[H])N([H])C([H])([H])S3)c([H])c2[H])C1([H])[H]

$$$$
59:0:0
     RDKit          3D

 79 85  0  0  1  0  0  0  0  0999 V2000
   24.3970  -26.6860  -16.8340 C   0  0  0  0  0  3  0  0  0  0  0  0
   25.2820  -27.4700  -16.1620 C   0  0  0  0  0  0  0  0  0  0  0  0
   23.3470  -26.9050  -17.9130 C   0  0  0  0  0  1  0  0  0  0  0  0
   25.9350  -24.7630  -15.3440 N   0  0  0  0  0  0  0  0  0  0  0  0
   26.4710  -25.7110  -14.6070 C   0  0  0  0  0  0  0  0  0  0  0  0
   27.0820  -25.4070  -13.5640 O   0  0  0  0  0  0  0  0  0  0  0  0
   26.2420  -26.9680  -15.1530 N   0  0  0  0  0  0  0  0  0  0  0  0
   25.7470  -25.0560  -16.2880 H   0  0  0  0  0  0  0  0  0  0  0  0
   26.7620  -27.6830  -14.6650 H   0  0  0  0  0  0  0  0  0  0  0  0
   25.0380  -23.6870  -14.9410 C   0  0  0  0  0  3  0  0  0  0  0  0
   21.8170  -23.8920  -12.6590 C   0  0  0  0  0  3  0  0  0  0  0  0
   21.3310  -22.6460  -11.9060 C   0  0  0  0  0  2  0  0  0  0  0  0
   22.5960  -21.8540  -11.6440 C   0  0  0  0  0  3  0  0  0  0  0  0
   23.5230  -22.1860  -12.8110 C   0  0  0  0  0  2  0  0  0  0  0  0
   23.0570  -23.4670  -13.3450 N   0  0  0  0  0  0  0  0  0  0  0  0
   23.7440  -24.2300  -14.2250 C   0  0  0  0  0  0  0  0  0  0  0  0
   23.3720  -25.3860  -14.4370 O   0  0  0  0  0  0  0  0  0  0  0  0
   19.8790  -25.3340  -13.0350 N   0  0  0  0  0  0  0  0  0  0  0  0
   20.6850  -24.4100  -13.5690 C   0  0  0  0  0  0  0  0  0  0  0  0
   20.5190  -23.9430  -14.6980 O   0  0  0  0  0  0  0  0  0  0  0  0
   20.0990  -25.6760  -12.1100 H   0  0  0  0  0  0  0  0  0  0  0  0
   18.6400  -25.8140  -13.6350 C   0  0  0  0  0  2  0  0  0  0  0  0
   15.2200  -23.2690  -12.7490 C   0  0  0  0  0  0  0  0  0  0  0  0
   16.2350  -23.4540  -11.7850 C   0  0  0  0  0  3  0  0  0  0  0  0
   17.3410  -24.2740  -12.0700 C   0  0  0  0  0  3  0  0  0  0  0  0
   15.3280  -23.9090  -14.0010 C   0  0  0  0  0  3  0  0  0  0  0  0
   16.4370  -24.7290  -14.2850 C   0  0  0  0  0  3  0  0  0  0  0  0
   17.4490  -24.9170  -13.3210 C   0  0  0  0  0  0  0  0  0  0  0  0
   12.1150  -23.8240  -13.4280 C   0  0  0  0  0  1  0  0  0  0  0  0
   12.7390  -22.6570  -12.6890 C   0  0  0  0  0  0  0  0  0  0  0  0
   11.8960  -21.6980  -12.1660 N   0  0  0  0  0  0  0  0  0  0  0  0
   12.4990  -20.7170  -11.2700 C   0  0  0  0  0  2  0  0  0  0  0  0
   14.2770  -20.9630  -11.5270 S   0  0  0  0  0  0  0  0  0  0  0  0
   14.0340  -22.4690  -12.3980 C   0  0  0  0  0  0  0  0  0  0  0  0
   10.8840  -21.7660  -12.2080 H   0  0  0  0  0  0  0  0  0  0  0  0
   23.2050  -22.2830  -10.4370 O   0  0  0  0  0  0  0  0  0  0  0  0
   23.4060  -23.2110  -10.5130 H   0  0  0  0  0  0  0  0  0  0  0  0
   24.8160  -22.8280  -16.2480 C   0  0  1  0  0  0  0  0  0  0  0  0
   26.1810  -22.2730  -16.7170 C   0  0  0  0  0  1  0  0  0  0  0  0
   24.2080  -23.5490  -17.4680 C   0  0  0  0  0  1  0  0  0  0  0  0
   23.8830  -21.6380  -15.9810 C   0  0  0  0  0  1  0  0  0  0  0  0
   25.1360  -28.9520  -16.4660 N   0  0  0  0  0  4  0  0  0  0  0  0
   24.5480  -29.3900  -15.7760 H   0  0  0  0  0  0  0  0  0  0  0  0
   26.0410  -29.3860  -16.3810 H   0  0  0  0  0  0  0  0  0  0  0  0
   23.4780  -29.9700  -17.7900 C   0  0  0  0  0  0  0  0  0  0  0  0
   24.6670  -29.4340  -17.7150 N   0  0  0  0  0  2  0  0  0  0  0  0
   23.1760  -30.5760  -18.9890 N   0  0  0  0  0  4  0  0  0  0  0  0
   22.3990  -29.9810  -16.8770 N   0  0  0  0  0  0  0  0  0  0  0  0
   23.8320  -30.6200  -19.7600 H   0  0  0  0  0  0  0  0  0  0  0  0
   22.2430  -30.7890  -19.3140 H   0  0  0  0  0  0  0  0  0  0  0  0
   22.3070  -29.4090  -16.0420 H   0  0  0  0  0  0  0  0  0  0  0  0
   20.3530  -31.1640  -16.2330 C   0  0  0  0  0  0  0  0  0  0  0  0
   20.0310  -30.5690  -15.1970 O   0  0  0  0  0  0  0  0  0  0  0  0
   21.2060  -30.6930  -17.1710 N   0  0  0  0  0  0  0  0  0  0  0  0
   21.3430  -31.2970  -17.9680 H   0  0  0  0  0  0  0  0  0  0  0  0
   20.0500  -32.6500  -16.4090 C   0  0  0  0  0  2  0  0  0  0  0  0
   20.7560  -33.4700  -15.2950 C   0  0  0  0  0  3  0  0  0  0  0  0
   22.1360  -33.0000  -15.0990 N   0  0  0  0  0  0  0  0  0  0  0  0
   20.7660  -34.9650  -15.5290 C   0  0  0  0  0  0  0  0  0  0  0  0
   20.4290  -35.6030  -16.6560 N   0  0  0  0  0  0  0  0  0  0  0  0
   20.6970  -36.9370  -16.4230 N   0  0  0  0  0  0  0  0  0  0  0  0
   21.1900  -36.9970  -15.1820 C   0  0  0  0  0  0  0  0  0  0  0  0
   21.6740  -38.2660  -14.5470 C   0  0  0  0  0  1  0  0  0  0  0  0
   21.2310  -35.7920  -14.5750 N   0  0  0  0  0  0  0  0  0  0  0  0
   21.6410  -35.4280  -13.2760 C   0  0  0  0  0  0  0  0  0  0  0  0
   21.2960  -36.3170  -11.8280 S   0  0  0  0  0  0  0  0  0  0  0  0
   22.0350  -35.0870  -10.8420 C   0  0  0  0  0  0  0  0  0  0  0  0
   22.0720  -35.2600   -9.3580 C   0  0  0  0  0  1  0  0  0  0  0  0
   22.5060  -34.0310  -11.5940 C   0  0  0  0  0  0  0  0  0  0  0  0
   23.1250  -32.8050  -10.9720 C   0  0  0  0  0  1  0  0  0  0  0  0
   22.3140  -34.2560  -13.0040 C   0  0  0  0  0  0  0  0  0  0  0  0
   22.8080  -33.3200  -14.0610 C   0  0  0  0  0  0  0  0  0  0  0  0
   24.1640  -32.7490  -13.9170 C   0  0  0  0  0  0  0  0  0  0  0  0
   25.2580  -33.5940  -13.6350 C   0  0  0  0  0  3  0  0  0  0  0  0
   26.5490  -33.0560  -13.4730 C   0  0  0  0  0  3  0  0  0  0  0  0
   26.7460  -31.6690  -13.5640 C   0  0  0  0  0  0  0  0  0  0  0  0
   28.3160  -30.9830  -13.3800 Cl  0  0  0  0  0  0  0  0  0  0  0  0
   25.6480  -30.8250  -13.7740 C   0  0  0  0  0  3  0  0  0  0  0  0
   24.3610  -31.3550  -13.9900 C   0  0  0  0  0  3  0  0  0  0  0  0
  1  2  2  0
  2  7  1  0
  3  1  1  0
  4 10  1  0
  4  5  1  0
  5  6  2  0
  7  9  1  0
  7  5  1  0
  8  4  1  0
 10 16  1  0
 11 19  1  0
 11 12  1  0
 12 13  1  0
 13 36  1  0
 14 13  1  0
 15 14  1  0
 15 11  1  0
 16 15  1  0
 17 16  2  0
 18 21  1  0
 19 18  1  0
 20 19  2  0
 22 28  1  0
 22 18  1  0
 23 34  1  0
 23 24  1  0
 25 24  2  0
 26 23  2  0
 27 26  1  0
 27 28  2  0
 28 25  1  0
 29 30  1  0
 30 34  2  0
 30 31  1  0
 31 32  1  0
 33 32  1  0
 34 33  1  0
 35 31  1  0
 37 36  1  0
 38 41  1  1
 38 10  1  0
 39 38  1  0
 40 38  1  0
 42 44  1  0
 42  2  1  0
 42 43  1  0
 45 46  1  0
 45 48  1  0
 46 42  1  0
 47 45  2  0
 48 51  1  0
 49 47  1  0
 50 47  1  0
 52 53  2  0
 54 48  1  0
 54 52  1  0
 55 54  1  0
 56 52  1  0
 57 56  1  0
 57 58  1  0
 58 72  2  0
 59 57  1  0
 59 64  1  0
 60 61  1  0
 60 59  2  0
 61 62  2  0
 62 64  1  0
 62 63  1  0
 64 65  1  0
 65 71  2  0
 65 66  1  0
 66 67  1  0
 67 68  1  0
 69 70  1  0
 69 67  2  0
 71 69  1  0
 72 73  1  0
 72 71  1  0
 73 74  1  0
 74 75  2  0
 76 75  1  0
 76 77  1  0
 78 76  2  0
 79 73  2  0
 79 78  1  0
M  ISO  4   5 101   7 101  52 100  54 100
M  END
>  <TORSDO>  (60) 
F 15

>  <SCORE>  (60) 
-7.939

>  <name>  (60) 
59

>  <ligand_id>  (60) 
59

>  <original_smiles>  (60) 
[H]OC1([H])C([H])([H])N(C(=O)C([H])(N([H])C(=O)N([H])C(=C([H])C([H])([H])[H])[N+]([H])([H])N=C(N([H])[H])N([H])N([H])C(=O)C([H])([H])C2([H])N=C(c3c([H])c([H])c(Cl)c([H])c3[H])c3c(sc(C([H])([H])[H])c3C([H])([H])[H])-n3c(C([H])([H])[H])nnc32)C(C([H])([H])[H])(C([H])([H])[H])C([H])([H])[H])C([H])(C(=O)N([H])C([H])([H])c2c([H])c([H])c(C3=C(C([H])([H])[H])N([H])C([H])([H])S3)c([H])c2[H])C1([H])[H]

>  <smiles>  (60) 
[H]OC1([H])C([H])([H])N(C(=O)C([H])(N([H])C(=O)N([H])C(=C([H])C([H])([H])[H])[N+]([H])([H])N=C(N([H])[H])N([H])N([H])C(=O)C([H])([H])C2([H])N=C(c3c([H])c([H])c(Cl)c([H])c3[H])c3c(sc(C([H])([H])[H])c3C([H])([H])[H])-n3c(C([H])([H])[H])nnc32)C(C([H])([H])[H])(C([H])([H])[H])C([H])([H])[H])C([H])(C(=O)N([H])C([H])([H])c2c([H])c([H])c(C3=C(C([H])([H])[H])N([H])C([H])([H])S3)c([H])c2[H])C1([H])[H]

$$$$
60:0:0
     RDKit          3D

 75 82  0  0  1  0  0  0  0  0999 V2000
   27.7460  -25.3460  -15.8240 C   0  0  0  0  0  3  0  0  0  0  0  0
   27.5210  -26.4310  -16.6160 C   0  0  0  0  0  3  0  0  0  0  0  0
   26.8860  -28.6390  -17.5680 C   0  0  0  0  0  2  0  0  0  0  0  0
   25.8280  -29.1750  -18.1710 C   0  0  0  0  0  2  0  0  0  0  0  0
   26.5300  -27.6010  -16.5210 C   0  0  0  0  0  3  0  0  0  0  0  0
   24.5210  -28.6620  -17.6330 C   0  0  0  0  0  3  0  0  0  0  0  0
   24.9690  -27.4480  -16.7430 C   0  0  0  0  0  3  0  0  0  0  0  0
   24.4320  -27.5680  -14.2120 C   0  0  0  0  0  2  0  0  0  0  0  0
   24.0780  -27.4840  -15.5030 C   0  0  0  0  0  3  0  0  0  0  0  0
   23.4070  -28.4250  -18.6920 C   0  0  0  0  0  2  0  0  0  0  0  0
   21.9450  -28.8250  -18.2780 C   0  0  0  0  0  2  0  0  0  0  0  0
   20.8970  -30.9770  -17.4080 C   0  0  0  0  0  0  0  0  0  0  0  0
   20.2530  -30.4680  -16.4870 O   0  0  0  0  0  0  0  0  0  0  0  0
   21.7010  -30.2780  -18.2430 N   0  0  0  0  0  0  0  0  0  0  0  0
   22.2170  -30.8320  -18.9120 H   0  0  0  0  0  0  0  0  0  0  0  0
   20.9240  -32.5080  -17.5630 C   0  0  0  0  0  2  0  0  0  0  0  0
   21.4470  -33.2210  -16.2870 C   0  0  0  0  0  3  0  0  0  0  0  0
   22.7930  -32.7430  -15.9690 N   0  0  0  0  0  0  0  0  0  0  0  0
   21.4580  -34.7380  -16.3660 C   0  0  0  0  0  0  0  0  0  0  0  0
   21.2460  -35.4890  -17.4570 N   0  0  0  0  0  0  0  0  0  0  0  0
   21.4640  -36.7940  -17.0570 N   0  0  0  0  0  0  0  0  0  0  0  0
   21.8010  -36.7310  -15.7660 C   0  0  0  0  0  0  0  0  0  0  0  0
   22.1840  -37.9300  -14.9540 C   0  0  0  0  0  1  0  0  0  0  0  0
   21.7880  -35.4710  -15.2830 N   0  0  0  0  0  0  0  0  0  0  0  0
   22.0450  -34.9830  -13.9830 C   0  0  0  0  0  0  0  0  0  0  0  0
   21.5190  -35.7230  -12.5040 S   0  0  0  0  0  0  0  0  0  0  0  0
   22.1530  -34.4010  -11.5640 C   0  0  0  0  0  0  0  0  0  0  0  0
   22.0090  -34.4320  -10.0770 C   0  0  0  0  0  1  0  0  0  0  0  0
   22.7210  -33.4250  -12.3580 C   0  0  0  0  0  0  0  0  0  0  0  0
   23.2770  -32.1400  -11.8000 C   0  0  0  0  0  1  0  0  0  0  0  0
   22.6960  -33.7920  -13.7500 C   0  0  0  0  0  0  0  0  0  0  0  0
   23.3280  -32.9730  -14.8290 C   0  0  0  0  0  0  0  0  0  0  0  0
   24.6670  -32.4140  -14.5790 C   0  0  0  0  0  0  0  0  0  0  0  0
   25.6760  -33.1890  -13.9650 C   0  0  0  0  0  3  0  0  0  0  0  0
   26.9480  -32.6300  -13.7220 C   0  0  0  0  0  3  0  0  0  0  0  0
   27.2030  -31.2940  -14.0680 C   0  0  0  0  0  0  0  0  0  0  0  0
   28.7420  -30.5810  -13.7650 Cl  0  0  0  0  0  0  0  0  0  0  0  0
   26.1820  -30.5320  -14.6460 C   0  0  0  0  0  3  0  0  0  0  0  0
   24.9230  -31.0780  -14.9140 C   0  0  0  0  0  3  0  0  0  0  0  0
   25.7410  -24.5710  -15.3220 N   0  0  0  0  0  0  0  0  0  0  0  0
   26.9140  -24.8030  -14.7530 C   0  0  0  0  0  0  0  0  0  0  0  0
   27.2670  -24.3280  -13.6660 O   0  0  0  0  0  0  0  0  0  0  0  0
   25.5330  -25.1300  -16.1340 H   0  0  0  0  0  0  0  0  0  0  0  0
   24.8470  -23.4400  -15.1400 C   0  0  0  0  0  3  0  0  0  0  0  0
   21.6800  -23.8000  -12.8550 C   0  0  0  0  0  3  0  0  0  0  0  0
   21.1720  -22.6000  -12.0440 C   0  0  0  0  0  2  0  0  0  0  0  0
   22.4090  -21.7590  -11.7960 C   0  0  0  0  0  3  0  0  0  0  0  0
   23.3270  -22.0320  -12.9890 C   0  0  0  0  0  2  0  0  0  0  0  0
   22.8840  -23.3070  -13.5550 N   0  0  0  0  0  0  0  0  0  0  0  0
   23.5560  -24.0060  -14.4970 C   0  0  0  0  0  0  0  0  0  0  0  0
   23.1780  -25.1250  -14.8360 O   0  0  0  0  0  0  0  0  0  0  0  0
   19.7880  -25.2930  -13.2190 N   0  0  0  0  0  0  0  0  0  0  0  0
   20.5530  -24.3340  -13.7540 C   0  0  0  0  0  0  0  0  0  0  0  0
   20.3530  -23.8540  -14.8730 O   0  0  0  0  0  0  0  0  0  0  0  0
   20.0300  -25.6400  -12.3010 H   0  0  0  0  0  0  0  0  0  0  0  0
   18.5590  -25.8060  -13.8080 C   0  0  0  0  0  2  0  0  0  0  0  0
   15.0760  -23.3910  -12.8170 C   0  0  0  0  0  0  0  0  0  0  0  0
   16.0920  -23.5930  -11.8620 C   0  0  0  0  0  3  0  0  0  0  0  0
   17.2200  -24.3710  -12.1790 C   0  0  0  0  0  3  0  0  0  0  0  0
   15.2040  -23.9660  -14.0990 C   0  0  0  0  0  3  0  0  0  0  0  0
   16.3360  -24.7430  -14.4180 C   0  0  0  0  0  3  0  0  0  0  0  0
   17.3460  -24.9510  -13.4590 C   0  0  0  0  0  0  0  0  0  0  0  0
   11.9970  -23.9490  -13.6020 C   0  0  0  0  0  1  0  0  0  0  0  0
   12.5830  -22.8260  -12.7680 C   0  0  0  0  0  0  0  0  0  0  0  0
   11.7140  -21.9230  -12.1940 N   0  0  0  0  0  0  0  0  0  0  0  0
   12.2810  -20.9990  -11.2190 C   0  0  0  0  0  2  0  0  0  0  0  0
   14.0670  -21.1980  -11.4510 S   0  0  0  0  0  0  0  0  0  0  0  0
   13.8700  -22.6390  -12.4370 C   0  0  0  0  0  0  0  0  0  0  0  0
   10.7040  -22.0010  -12.2700 H   0  0  0  0  0  0  0  0  0  0  0  0
   23.0610  -22.1880  -10.6130 O   0  0  0  0  0  0  0  0  0  0  0  0
   23.2820  -23.1100  -10.7150 H   0  0  0  0  0  0  0  0  0  0  0  0
   24.6490  -22.7760  -16.5610 C   0  0  1  0  0  0  0  0  0  0  0  0
   25.9580  -22.0750  -17.0000 C   0  0  0  0  0  1  0  0  0  0  0  0
   24.3030  -23.8020  -17.6670 C   0  0  0  0  0  1  0  0  0  0  0  0
   23.5550  -21.6870  -16.5570 C   0  0  0  0  0  1  0  0  0  0  0  0
  1 41  1  0
  2  1  2  0
  3  5  1  0
  4  6  1  0
  4  3  1  0
  5  2  1  0
  6 10  1  0
  6  7  1  0
  7  5  1  0
  7  9  1  0
  9  8  2  0
 10 11  1  0
 11 14  1  0
 12 13  2  0
 14 12  1  0
 15 14  1  0
 16 12  1  0
 17 16  1  0
 17 18  1  0
 18 32  2  0
 19 17  1  0
 19 24  1  0
 20 21  1  0
 20 19  2  0
 21 22  2  0
 22 24  1  0
 22 23  1  0
 24 25  1  0
 25 31  2  0
 25 26  1  0
 26 27  1  0
 27 28  1  0
 29 30  1  0
 29 27  2  0
 31 29  1  0
 32 33  1  0
 32 31  1  0
 33 34  1  0
 34 35  2  0
 36 37  1  0
 36 35  1  0
 38 36  2  0
 39 38  1  0
 39 33  2  0
 40 44  1  0
 40 41  1  0
 41 42  2  0
 43 40  1  0
 44 50  1  0
 45 53  1  0
 45 46  1  0
 46 47  1  0
 47 70  1  0
 48 47  1  0
 49 48  1  0
 49 45  1  0
 50 49  1  0
 51 50  2  0
 52 55  1  0
 53 52  1  0
 54 53  2  0
 56 62  1  0
 56 52  1  0
 57 68  1  0
 57 58  1  0
 59 58  2  0
 60 57  2  0
 61 60  1  0
 61 62  2  0
 62 59  1  0
 63 64  1  0
 64 68  2  0
 64 65  1  0
 65 66  1  0
 67 66  1  0
 68 67  1  0
 69 65  1  0
 71 70  1  0
 72 75  1  1
 72 44  1  0
 73 72  1  0
 74 72  1  0
M  ISO  4   1 101  12 100  14 100  41 101
M  END
>  <TORSDO>  (61) 
F 17

>  <SCORE>  (61) 
-10.508

>  <name>  (61) 
60

>  <ligand_id>  (61) 
60

>  <original_smiles>  (61) 
[H]OC1([H])C([H])([H])N(C(=O)C([H])(N([H])C(=O)C([H])=C([H])C2([H])C([H])=C([H])C([H])(C([H])([H])C([H])([H])N([H])C(=O)C([H])([H])C3([H])N=C(c4c([H])c([H])c(Cl)c([H])c4[H])c4c(sc(C([H])([H])[H])c4C([H])([H])[H])-n4c(C([H])([H])[H])nnc43)C2([H])C([H])=C([H])[H])C(C([H])([H])[H])(C([H])([H])[H])C([H])([H])[H])C([H])(C(=O)N([H])C([H])([H])c2c([H])c([H])c(C3=C(C([H])([H])[H])N([H])C([H])([H])S3)c([H])c2[H])C1([H])[H]

>  <smiles>  (61) 
[H]OC1([H])C([H])([H])N(C(=O)C([H])(N([H])C(=O)C([H])=C([H])C2([H])C([H])=C([H])C([H])(C([H])([H])C([H])([H])N([H])C(=O)C([H])([H])C3([H])N=C(c4c([H])c([H])c(Cl)c([H])c4[H])c4c(sc(C([H])([H])[H])c4C([H])([H])[H])-n4c(C([H])([H])[H])nnc43)C2([H])C([H])=C([H])[H])C(C([H])([H])[H])(C([H])([H])[H])C([H])([H])[H])C([H])(C(=O)N([H])C([H])([H])c2c([H])c([H])c(C3=C(C([H])([H])[H])N([H])C([H])([H])S3)c([H])c2[H])C1([H])[H]

$$$$
61:0:0
     RDKit          3D

 80 86  0  0  1  0  0  0  0  0999 V2000
   25.3660  -27.7220  -15.8280 C   0  0  0  0  0  0  0  0  0  0  0  0
   26.0680  -27.8300  -16.9610 N   0  0  0  0  0  4  0  0  0  0  0  0
   25.9300  -27.2010  -14.7230 N   0  0  0  0  0  0  0  0  0  0  0  0
   24.0820  -28.1230  -15.8050 N   0  0  0  0  0  0  0  0  0  0  0  0
   27.0570  -27.6340  -17.0030 H   0  0  0  0  0  0  0  0  0  0  0  0
   25.6100  -28.2610  -17.7520 H   0  0  0  0  0  0  0  0  0  0  0  0
   25.4350  -27.0600  -13.8540 H   0  0  0  0  0  0  0  0  0  0  0  0
   23.4600  -27.8010  -15.0720 H   0  0  0  0  0  0  0  0  0  0  0  0
   22.2090  -28.5700  -17.0050 C   0  0  0  0  0  0  0  0  0  0  0  0
   23.4780  -28.7630  -16.8680 N   0  0  0  0  0  2  0  0  0  0  0  0
   21.5220  -27.5850  -16.3240 N   0  0  0  0  0  4  0  0  0  0  0  0
   21.4140  -29.3250  -17.8560 N   0  0  0  0  0  0  0  0  0  0  0  0
   21.9610  -26.7970  -15.8590 H   0  0  0  0  0  0  0  0  0  0  0  0
   20.5270  -27.4210  -16.4050 H   0  0  0  0  0  0  0  0  0  0  0  0
   20.4620  -29.0280  -18.0400 H   0  0  0  0  0  0  0  0  0  0  0  0
   20.8800  -31.5670  -17.1880 C   0  0  0  0  0  0  0  0  0  0  0  0
   20.1740  -31.1370  -16.2750 O   0  0  0  0  0  0  0  0  0  0  0  0
   21.5590  -30.7220  -17.9840 N   0  0  0  0  0  0  0  0  0  0  0  0
   22.1950  -31.0370  -18.7050 H   0  0  0  0  0  0  0  0  0  0  0  0
   21.0760  -33.0870  -17.3460 C   0  0  0  0  0  2  0  0  0  0  0  0
   21.5110  -33.7520  -16.0100 C   0  0  0  0  0  3  0  0  0  0  0  0
   22.8510  -33.2730  -15.6730 N   0  0  0  0  0  0  0  0  0  0  0  0
   21.5010  -35.2740  -16.0070 C   0  0  0  0  0  0  0  0  0  0  0  0
   21.2920  -36.0790  -17.0570 N   0  0  0  0  0  0  0  0  0  0  0  0
   21.4680  -37.3660  -16.5840 N   0  0  0  0  0  0  0  0  0  0  0  0
   21.7790  -37.2400  -15.2890 C   0  0  0  0  0  0  0  0  0  0  0  0
   22.1130  -38.4020  -14.4040 C   0  0  0  0  0  1  0  0  0  0  0  0
   21.7830  -35.9540  -14.8760 N   0  0  0  0  0  0  0  0  0  0  0  0
   22.0140  -35.4030  -13.5990 C   0  0  0  0  0  0  0  0  0  0  0  0
   21.4360  -36.0590  -12.1010 S   0  0  0  0  0  0  0  0  0  0  0  0
   22.0720  -34.7040  -11.2110 C   0  0  0  0  0  0  0  0  0  0  0  0
   21.8920  -34.6490   -9.7290 C   0  0  0  0  0  1  0  0  0  0  0  0
   22.6810  -33.7830  -12.0350 C   0  0  0  0  0  0  0  0  0  0  0  0
   23.2530  -32.4870  -11.5190 C   0  0  0  0  0  1  0  0  0  0  0  0
   22.6820  -34.2130  -13.4110 C   0  0  0  0  0  0  0  0  0  0  0  0
   23.3540  -33.4500  -14.5120 C   0  0  0  0  0  0  0  0  0  0  0  0
   24.6990  -32.8870  -14.2670 C   0  0  0  0  0  0  0  0  0  0  0  0
   25.6770  -33.6600  -13.6030 C   0  0  0  0  0  3  0  0  0  0  0  0
   26.9500  -33.1160  -13.3440 C   0  0  0  0  0  3  0  0  0  0  0  0
   27.2480  -31.8040  -13.7540 C   0  0  0  0  0  0  0  0  0  0  0  0
   28.8000  -31.1270  -13.4340 Cl  0  0  0  0  0  0  0  0  0  0  0  0
   26.2810  -31.0400  -14.4290 C   0  0  0  0  0  3  0  0  0  0  0  0
   25.0070  -31.5770  -14.6860 C   0  0  0  0  0  3  0  0  0  0  0  0
   27.1180  -26.4870  -14.8230 O   0  0  0  0  0  0  0  0  0  0  0  0
   25.9370  -24.7230  -15.5380 N   0  0  0  0  0  0  0  0  0  0  0  0
   26.8570  -25.1790  -14.6150 C   0  0  0  0  0  0  0  0  0  0  0  0
   27.3160  -24.5320  -13.6740 O   0  0  0  0  0  0  0  0  0  0  0  0
   25.7380  -25.3470  -16.3060 H   0  0  0  0  0  0  0  0  0  0  0  0
   24.9890  -23.6340  -15.3300 C   0  0  0  0  0  3  0  0  0  0  0  0
   21.9330  -24.0330  -12.8770 C   0  0  0  0  0  3  0  0  0  0  0  0
   21.5050  -22.8500  -11.9930 C   0  0  0  0  0  2  0  0  0  0  0  0
   22.7810  -22.0680  -11.7680 C   0  0  0  0  0  3  0  0  0  0  0  0
   23.6220  -22.3130  -13.0220 C   0  0  0  0  0  2  0  0  0  0  0  0
   23.1190  -23.5550  -13.6200 N   0  0  0  0  0  0  0  0  0  0  0  0
   23.7350  -24.2380  -14.6180 C   0  0  0  0  0  0  0  0  0  0  0  0
   23.3690  -25.3770  -14.9480 O   0  0  0  0  0  0  0  0  0  0  0  0
   19.9430  -25.4070  -13.1970 N   0  0  0  0  0  0  0  0  0  0  0  0
   20.7410  -24.4800  -13.7390 C   0  0  0  0  0  0  0  0  0  0  0  0
   20.5220  -23.9600  -14.8350 O   0  0  0  0  0  0  0  0  0  0  0  0
   20.2070  -25.7950  -12.3030 H   0  0  0  0  0  0  0  0  0  0  0  0
   18.6600  -25.8310  -13.7430 C   0  0  0  0  0  2  0  0  0  0  0  0
   15.3780  -23.1910  -12.6420 C   0  0  0  0  0  0  0  0  0  0  0  0
   16.4230  -23.4400  -11.7300 C   0  0  0  0  0  3  0  0  0  0  0  0
   17.4860  -24.2890  -12.0820 C   0  0  0  0  0  3  0  0  0  0  0  0
   15.4110  -23.7970  -13.9160 C   0  0  0  0  0  3  0  0  0  0  0  0
   16.4760  -24.6470  -14.2690 C   0  0  0  0  0  3  0  0  0  0  0  0
   17.5200  -24.8990  -13.3550 C   0  0  0  0  0  0  0  0  0  0  0  0
   12.2300  -23.6070  -13.2230 C   0  0  0  0  0  1  0  0  0  0  0  0
   12.9250  -22.4910  -12.4680 C   0  0  0  0  0  0  0  0  0  0  0  0
   12.1390  -21.5200  -11.8810 N   0  0  0  0  0  0  0  0  0  0  0  0
   12.8120  -20.5940  -10.9770 C   0  0  0  0  0  2  0  0  0  0  0  0
   14.5680  -20.8970  -11.3090 S   0  0  0  0  0  0  0  0  0  0  0  0
   14.2360  -22.3610  -12.2200 C   0  0  0  0  0  0  0  0  0  0  0  0
   11.1230  -21.5480  -11.8890 H   0  0  0  0  0  0  0  0  0  0  0  0
   23.4730  -22.5750  -10.6370 O   0  0  0  0  0  0  0  0  0  0  0  0
   23.6580  -23.4970  -10.7830 H   0  0  0  0  0  0  0  0  0  0  0  0
   24.6780  -23.0070  -16.7340 C   0  0  1  0  0  0  0  0  0  0  0  0
   25.9650  -22.3370  -17.2710 C   0  0  0  0  0  1  0  0  0  0  0  0
   24.2060  -24.0520  -17.7750 C   0  0  0  0  0  1  0  0  0  0  0  0
   23.6020  -21.9060  -16.6360 C   0  0  0  0  0  1  0  0  0  0  0  0
  1  4  1  0
  1  3  1  0
  2  1  2  0
  3  7  1  0
  4  8  1  0
  5  2  1  0
  6  2  1  0
  9 10  1  0
  9 11  2  0
 10  4  1  0
 11 13  1  0
 12  9  1  0
 14 11  1  0
 15 12  1  0
 16 17  2  0
 18 12  1  0
 18 16  1  0
 19 18  1  0
 20 16  1  0
 21 20  1  0
 21 23  1  0
 21 22  1  0
 22 36  2  0
 23 28  1  0
 24 25  1  0
 24 23  2  0
 25 26  2  0
 26 28  1  0
 26 27  1  0
 28 29  1  0
 29 35  2  0
 29 30  1  0
 30 31  1  0
 31 32  1  0
 33 34  1  0
 33 31  2  0
 35 33  1  0
 36 37  1  0
 36 35  1  0
 37 38  1  0
 38 39  2  0
 40 41  1  0
 40 39  1  0
 42 40  2  0
 43 42  1  0
 43 37  2  0
 44  3  1  0
 44 46  1  0
 45 49  1  0
 45 46  1  0
 46 47  2  0
 48 45  1  0
 49 55  1  0
 50 58  1  0
 50 51  1  0
 51 52  1  0
 52 75  1  0
 53 52  1  0
 54 53  1  0
 54 50  1  0
 55 54  1  0
 56 55  2  0
 57 60  1  0
 58 57  1  0
 59 58  2  0
 61 67  1  0
 61 57  1  0
 62 73  1  0
 62 63  1  0
 64 63  2  0
 65 62  2  0
 66 65  1  0
 66 67  2  0
 67 64  1  0
 68 69  1  0
 69 73  2  0
 69 70  1  0
 70 71  1  0
 72 71  1  0
 73 72  1  0
 74 70  1  0
 76 75  1  0
 77 80  1  1
 77 49  1  0
 78 77  1  0
 79 77  1  0
M  ISO  4  16 100  18 100  44 101  46 101
M  END
>  <TORSDO>  (62) 
F 15

>  <SCORE>  (62) 
-14.488

>  <name>  (62) 
61

>  <ligand_id>  (62) 
61

>  <original_smiles>  (62) 
[H]OC1([H])C([H])([H])N(C(=O)C([H])(N([H])C(=O)ON([H])C(N([H])[H])=[N+]([H])N=C(N([H])[H])N([H])N([H])C(=O)C([H])([H])C2([H])N=C(c3c([H])c([H])c(Cl)c([H])c3[H])c3c(sc(C([H])([H])[H])c3C([H])([H])[H])-n3c(C([H])([H])[H])nnc32)C(C([H])([H])[H])(C([H])([H])[H])C([H])([H])[H])C([H])(C(=O)N([H])C([H])([H])c2c([H])c([H])c(C3=C(C([H])([H])[H])N([H])C([H])([H])S3)c([H])c2[H])C1([H])[H]

>  <smiles>  (62) 
[H]OC1([H])C([H])([H])N(C(=O)C([H])(N([H])C(=O)ON([H])C(N([H])[H])=[N+]([H])N=C(N([H])[H])N([H])N([H])C(=O)C([H])([H])C2([H])N=C(c3c([H])c([H])c(Cl)c([H])c3[H])c3c(sc(C([H])([H])[H])c3C([H])([H])[H])-n3c(C([H])([H])[H])nnc32)C(C([H])([H])[H])(C([H])([H])[H])C([H])([H])[H])C([H])(C(=O)N([H])C([H])([H])c2c([H])c([H])c(C3=C(C([H])([H])[H])N([H])C([H])([H])S3)c([H])c2[H])C1([H])[H]

$$$$
62:0:0
     RDKit          3D

 81 89  0  0  1  0  0  0  0  0999 V2000
   27.5070  -28.7420  -18.0540 C   0  0  0  0  0  0  0  0  0  0  0  0
   28.8110  -26.2130  -15.6760 C   0  0  0  0  0  2  0  0  0  0  0  0
   26.3030  -28.5070  -17.1880 C   0  0  0  0  0  3  0  0  0  0  0  0
   27.9670  -27.3350  -17.9010 C   0  0  0  0  0  3  0  0  0  0  0  0
   27.3940  -26.8060  -15.5450 C   0  0  0  0  0  3  0  0  0  0  0  0
   26.8670  -27.1340  -16.9300 N   0  0  2  0  0  4  0  0  0  0  0  0
   28.0880  -30.0570  -18.9080 S   0  0  0  0  0  0  0  0  0  0  0  0
   29.5740  -27.0720  -17.0560 S   0  0  0  0  0  0  0  0  0  0  0  0
   26.2720  -26.4110  -17.3020 H   0  0  0  0  0  0  0  0  0  0  0  0
   25.3500  -24.3480  -15.2090 N   0  0  0  0  0  0  0  0  0  0  0  0
   26.3970  -24.7230  -14.4850 C   0  0  0  0  0  0  0  0  0  0  0  0
   27.0040  -23.9920  -13.6940 O   0  0  0  0  0  0  0  0  0  0  0  0
   26.5460  -26.0520  -14.5960 N   0  0  0  0  0  0  0  0  0  0  0  0
   24.8970  -25.0550  -15.7630 H   0  0  0  0  0  0  0  0  0  0  0  0
   25.7100  -26.5570  -14.3360 H   0  0  0  0  0  0  0  0  0  0  0  0
   24.4630  -23.2140  -14.9990 C   0  0  0  0  0  3  0  0  0  0  0  0
   21.2790  -23.5300  -12.7120 C   0  0  0  0  0  3  0  0  0  0  0  0
   20.7470  -22.2940  -11.9720 C   0  0  0  0  0  2  0  0  0  0  0  0
   21.9740  -21.4340  -11.7480 C   0  0  0  0  0  3  0  0  0  0  0  0
   22.8980  -21.7490  -12.9230 C   0  0  0  0  0  2  0  0  0  0  0  0
   22.4860  -23.0650  -13.4270 N   0  0  0  0  0  0  0  0  0  0  0  0
   23.1900  -23.8040  -14.3170 C   0  0  0  0  0  0  0  0  0  0  0  0
   22.8840  -24.9770  -14.5750 O   0  0  0  0  0  0  0  0  0  0  0  0
   19.4210  -25.0760  -13.0350 N   0  0  0  0  0  0  0  0  0  0  0  0
   20.1640  -24.1160  -13.5950 C   0  0  0  0  0  0  0  0  0  0  0  0
   19.9500  -23.6680  -14.7240 O   0  0  0  0  0  0  0  0  0  0  0  0
   19.6760  -25.3960  -12.1110 H   0  0  0  0  0  0  0  0  0  0  0  0
   18.1980  -25.6290  -13.6040 C   0  0  0  0  0  2  0  0  0  0  0  0
   14.6610  -23.2730  -12.6620 C   0  0  0  0  0  0  0  0  0  0  0  0
   15.6730  -23.4480  -11.6960 C   0  0  0  0  0  3  0  0  0  0  0  0
   16.8180  -24.2060  -11.9970 C   0  0  0  0  0  3  0  0  0  0  0  0
   14.8090  -23.8600  -13.9370 C   0  0  0  0  0  3  0  0  0  0  0  0
   15.9560  -24.6180  -14.2380 C   0  0  0  0  0  3  0  0  0  0  0  0
   16.9670  -24.7960  -13.2710 C   0  0  0  0  0  0  0  0  0  0  0  0
   11.6040  -23.8700  -13.5070 C   0  0  0  0  0  1  0  0  0  0  0  0
   12.1590  -22.7470  -12.6530 C   0  0  0  0  0  0  0  0  0  0  0  0
   11.2630  -21.8620  -12.0890 N   0  0  0  0  0  0  0  0  0  0  0  0
   11.7980  -20.9400  -11.0940 C   0  0  0  0  0  2  0  0  0  0  0  0
   13.5920  -21.1070  -11.2980 S   0  0  0  0  0  0  0  0  0  0  0  0
   13.4350  -22.5440  -12.2970 C   0  0  0  0  0  0  0  0  0  0  0  0
   10.2560  -21.9570  -12.1780 H   0  0  0  0  0  0  0  0  0  0  0  0
   22.6200  -21.8030  -10.5400 O   0  0  0  0  0  0  0  0  0  0  0  0
   22.8560  -22.7230  -10.5930 H   0  0  0  0  0  0  0  0  0  0  0  0
   24.1800  -22.5800  -16.4120 C   0  0  1  0  0  0  0  0  0  0  0  0
   25.4860  -21.9390  -16.9360 C   0  0  0  0  0  1  0  0  0  0  0  0
   23.6960  -23.6080  -17.4670 C   0  0  0  0  0  1  0  0  0  0  0  0
   23.1250  -21.4560  -16.3340 C   0  0  0  0  0  1  0  0  0  0  0  0
   24.9720  -28.6150  -18.0090 C   0  0  0  0  0  2  0  0  0  0  0  0
   23.7390  -28.7850  -17.1920 N   0  0  0  0  0  0  0  0  0  0  0  0
   23.3940  -27.8930  -16.8380 H   0  0  0  0  0  0  0  0  0  0  0  0
   21.8640  -28.9530  -18.9860 O   0  0  0  0  0  0  0  0  0  0  0  0
   22.9400  -31.0800  -18.0770 O   0  0  0  0  0  0  0  0  0  0  0  0
   22.4250  -29.7200  -17.8630 S   0  0  1  0  0  0  0  0  0  0  0  0
   20.1800  -30.5120  -16.2650 C   0  0  0  0  0  0  0  0  0  0  0  0
   19.4940  -30.1650  -15.3040 O   0  0  0  0  0  0  0  0  0  0  0  0
   21.2930  -29.6950  -16.5600 N   0  0  0  0  0  0  0  0  0  0  0  0
   21.3400  -28.8050  -16.0720 H   0  0  0  0  0  0  0  0  0  0  0  0
   20.0370  -31.9470  -16.8230 C   0  0  0  0  0  2  0  0  0  0  0  0
   20.6310  -32.9630  -15.8090 C   0  0  0  0  0  3  0  0  0  0  0  0
   21.9860  -32.5210  -15.5060 N   0  0  0  0  0  0  0  0  0  0  0  0
   20.6640  -34.4220  -16.2390 C   0  0  0  0  0  0  0  0  0  0  0  0
   20.3240  -34.9130  -17.4360 N   0  0  0  0  0  0  0  0  0  0  0  0
   20.6120  -36.2640  -17.3830 N   0  0  0  0  0  0  0  0  0  0  0  0
   21.1080  -36.4840  -16.1610 C   0  0  0  0  0  0  0  0  0  0  0  0
   21.6150  -37.8180  -15.7040 C   0  0  0  0  0  1  0  0  0  0  0  0
   21.1290  -35.3690  -15.3970 N   0  0  0  0  0  0  0  0  0  0  0  0
   21.5240  -35.1870  -14.0540 C   0  0  0  0  0  0  0  0  0  0  0  0
   21.1970  -36.2820  -12.7480 S   0  0  0  0  0  0  0  0  0  0  0  0
   21.9080  -35.1880  -11.5930 C   0  0  0  0  0  0  0  0  0  0  0  0
   21.9470  -35.5670  -10.1460 C   0  0  0  0  0  1  0  0  0  0  0  0
   22.3570  -34.0280  -12.1840 C   0  0  0  0  0  0  0  0  0  0  0  0
   22.9480  -32.8880  -11.3940 C   0  0  0  0  0  1  0  0  0  0  0  0
   22.1730  -34.0540  -13.6130 C   0  0  0  0  0  0  0  0  0  0  0  0
   22.6530  -32.9690  -14.5200 C   0  0  0  0  0  0  0  0  0  0  0  0
   23.9880  -32.3830  -14.3000 C   0  0  0  0  0  0  0  0  0  0  0  0
   25.0890  -33.2240  -14.0350 C   0  0  0  0  0  3  0  0  0  0  0  0
   26.3600  -32.6660  -13.8030 C   0  0  0  0  0  3  0  0  0  0  0  0
   26.5270  -31.2690  -13.8210 C   0  0  0  0  0  0  0  0  0  0  0  0
   28.0820  -30.5830  -13.5360 Cl  0  0  0  0  0  0  0  0  0  0  0  0
   25.4250  -30.4320  -14.0660 C   0  0  0  0  0  3  0  0  0  0  0  0
   24.1600  -30.9830  -14.3300 C   0  0  0  0  0  3  0  0  0  0  0  0
  1  3  1  0
  2  5  1  0
  3 48  1  0
  3  6  1  0
  4  1  1  0
  4  8  1  0
  4  6  1  0
  5 13  1  0
  6  9  1  6
  6  5  1  0
  7  1  2  0
  8  2  1  0
 10 16  1  0
 10 11  1  0
 11 12  2  0
 13 11  1  0
 13 15  1  0
 14 10  1  0
 16 22  1  0
 17 25  1  0
 17 18  1  0
 18 19  1  0
 19 42  1  0
 20 19  1  0
 21 20  1  0
 21 17  1  0
 22 21  1  0
 23 22  2  0
 24 27  1  0
 25 24  1  0
 26 25  2  0
 28 34  1  0
 28 24  1  0
 29 40  1  0
 29 30  1  0
 31 30  2  0
 32 29  2  0
 33 32  1  0
 33 34  2  0
 34 31  1  0
 35 36  1  0
 36 40  2  0
 36 37  1  0
 37 38  1  0
 39 38  1  0
 40 39  1  0
 41 37  1  0
 43 42  1  0
 44 47  1  1
 44 16  1  0
 45 44  1  0
 46 44  1  0
 48 49  1  0
 49 50  1  0
 51 53  2  0
 52 53  2  0
 53 49  1  1
 53 56  1  0
 54 55  2  0
 56 54  1  0
 56 57  1  0
 58 54  1  0
 59 58  1  0
 59 60  1  0
 60 74  2  0
 61 59  1  0
 61 66  1  0
 62 63  1  0
 62 61  2  0
 63 64  2  0
 64 65  1  0
 64 66  1  0
 66 67  1  0
 67 73  2  0
 67 68  1  0
 68 69  1  0
 69 70  1  0
 71 69  2  0
 71 72  1  0
 73 71  1  0
 74 75  1  0
 74 73  1  0
 75 76  1  0
 76 77  2  0
 78 77  1  0
 78 79  1  0
 80 78  2  0
 81 75  2  0
 81 80  1  0
M  ISO  4  11 101  13 101  54 100  56 100
M  END
>  <TORSDO>  (63) 
F 16

>  <SCORE>  (63) 
-2.583

>  <name>  (63) 
62

>  <ligand_id>  (63) 
62

>  <original_smiles>  (63) 
[H]OC1([H])C([H])([H])N(C(=O)C([H])(N([H])C(=O)N([H])C2([H])C([H])([H])SC3([H])C(=S)C([H])(C([H])([H])N([H])S(=O)(=O)N([H])C(=O)C([H])([H])C4([H])N=C(c5c([H])c([H])c(Cl)c([H])c5[H])c5c(sc(C([H])([H])[H])c5C([H])([H])[H])-n5c(C([H])([H])[H])nnc54)[N+]32[H])C(C([H])([H])[H])(C([H])([H])[H])C([H])([H])[H])C([H])(C(=O)N([H])C([H])([H])c2c([H])c([H])c(C3=C(C([H])([H])[H])N([H])C([H])([H])S3)c([H])c2[H])C1([H])[H]

>  <smiles>  (63) 
[H]OC1([H])C([H])([H])N(C(=O)C([H])(N([H])C(=O)N([H])C2([H])C([H])([H])SC3([H])C(=S)C([H])(C([H])([H])N([H])S(=O)(=O)N([H])C(=O)C([H])([H])C4([H])N=C(c5c([H])c([H])c(Cl)c([H])c5[H])c5c(sc(C([H])([H])[H])c5C([H])([H])[H])-n5c(C([H])([H])[H])nnc54)[N+]32[H])C(C([H])([H])[H])(C([H])([H])[H])C([H])([H])[H])C([H])(C(=O)N([H])C([H])([H])c2c([H])c([H])c(C3=C(C([H])([H])[H])N([H])C([H])([H])S3)c([H])c2[H])C1([H])[H]

$$$$
63:0:0
     RDKit          3D

 85 91  0  0  1  0  0  0  0  0999 V2000
   26.3590  -28.9310  -17.2730 C   0  0  0  0  0  3  0  0  0  0  0  0
   26.4850  -28.1050  -16.2070 N   0  0  0  0  0  0  0  0  0  0  0  0
   25.1830  -29.3240  -17.8260 N   0  0  0  0  0  0  0  0  0  0  0  0
   27.4740  -29.4050  -17.8730 N   0  0  0  0  0  0  0  0  0  0  0  0
   25.6900  -27.6000  -15.8510 H   0  0  0  0  0  0  0  0  0  0  0  0
   25.3090  -29.7710  -18.7230 H   0  0  0  0  0  0  0  0  0  0  0  0
   28.4500  -29.1810  -17.7080 H   0  0  0  0  0  0  0  0  0  0  0  0
   22.8490  -29.7970  -18.0200 C   0  0  0  0  0  0  0  0  0  0  0  0
   23.1590  -30.5130  -19.1120 N   0  0  0  0  0  4  0  0  0  0  0  0
   23.8560  -29.2360  -17.2890 N   0  0  0  0  0  0  0  0  0  0  0  0
   21.5200  -29.6980  -17.7560 N   0  0  0  0  0  0  0  0  0  0  0  0
   24.0890  -30.8560  -19.2790 H   0  0  0  0  0  0  0  0  0  0  0  0
   22.4420  -30.8920  -19.7150 H   0  0  0  0  0  0  0  0  0  0  0  0
   23.6380  -28.6470  -16.4990 H   0  0  0  0  0  0  0  0  0  0  0  0
   20.8580  -30.0740  -18.4190 H   0  0  0  0  0  0  0  0  0  0  0  0
   19.9930  -29.9000  -15.9420 C   0  0  0  0  0  0  0  0  0  0  0  0
   19.5240  -29.4900  -14.8800 O   0  0  0  0  0  0  0  0  0  0  0  0
   20.9420  -29.1780  -16.5900 N   0  0  0  0  0  0  0  0  0  0  0  0
   21.2410  -28.2290  -16.4150 H   0  0  0  0  0  0  0  0  0  0  0  0
   19.6080  -31.3220  -16.4200 C   0  0  0  0  0  2  0  0  0  0  0  0
   20.3530  -32.4020  -15.5960 C   0  0  0  0  0  3  0  0  0  0  0  0
   21.7400  -31.9750  -15.3980 N   0  0  0  0  0  0  0  0  0  0  0  0
   20.3330  -33.7970  -16.1980 C   0  0  0  0  0  0  0  0  0  0  0  0
   19.8960  -34.1390  -17.4150 N   0  0  0  0  0  0  0  0  0  0  0  0
   20.1740  -35.4870  -17.5470 N   0  0  0  0  0  0  0  0  0  0  0  0
   20.7700  -35.8500  -16.4060 C   0  0  0  0  0  0  0  0  0  0  0  0
   21.2960  -37.2300  -16.1540 C   0  0  0  0  0  1  0  0  0  0  0  0
   20.8680  -34.8340  -15.5220 N   0  0  0  0  0  0  0  0  0  0  0  0
   21.3850  -34.8010  -14.2110 C   0  0  0  0  0  0  0  0  0  0  0  0
   21.1590  -36.0340  -13.0120 S   0  0  0  0  0  0  0  0  0  0  0  0
   21.9820  -35.0810  -11.8100 C   0  0  0  0  0  0  0  0  0  0  0  0
   22.1420  -35.6220  -10.4250 C   0  0  0  0  0  1  0  0  0  0  0  0
   22.3930  -33.8620  -12.3080 C   0  0  0  0  0  0  0  0  0  0  0  0
   23.0680  -32.8220  -11.4500 C   0  0  0  0  0  1  0  0  0  0  0  0
   22.0820  -33.7240  -13.7080 C   0  0  0  0  0  0  0  0  0  0  0  0
   22.4900  -32.5410  -14.5310 C   0  0  0  0  0  0  0  0  0  0  0  0
   23.8510  -31.9980  -14.3660 C   0  0  0  0  0  0  0  0  0  0  0  0
   24.9570  -32.8720  -14.3120 C   0  0  0  0  0  3  0  0  0  0  0  0
   26.2540  -32.3570  -14.1250 C   0  0  0  0  0  3  0  0  0  0  0  0
   26.4430  -30.9740  -13.9680 C   0  0  0  0  0  0  0  0  0  0  0  0
   28.0280  -30.3390  -13.7360 Cl  0  0  0  0  0  0  0  0  0  0  0  0
   25.3340  -30.1110  -13.9850 C   0  0  0  0  0  3  0  0  0  0  0  0
   24.0410  -30.6100  -14.2160 C   0  0  0  0  0  3  0  0  0  0  0  0
   27.2690  -30.2520  -18.9680 O   0  0  0  0  0  0  0  0  0  0  0  0
   27.5480  -31.1050  -18.6460 H   0  0  0  0  0  0  0  0  0  0  0  0
   27.7230  -27.9540  -15.5480 N   0  0  0  0  0  2  0  0  0  0  0  0
   27.9690  -27.0110  -14.7590 N   0  0  0  0  0  2  0  0  0  0  0  0
   25.9560  -24.3290  -15.1570 N   0  0  0  0  0  0  0  0  0  0  0  0
   26.8190  -24.9360  -14.3600 C   0  0  0  0  0  0  0  0  0  0  0  0
   26.9540  -24.7180  -13.1490 O   0  0  0  0  0  0  0  0  0  0  0  0
   27.5210  -25.7580  -15.1450 N   0  0  0  0  0  0  0  0  0  0  0  0
   25.9240  -24.6380  -16.1130 H   0  0  0  0  0  0  0  0  0  0  0  0
   27.4720  -25.6340  -16.1440 H   0  0  0  0  0  0  0  0  0  0  0  0
   24.9870  -23.2890  -14.8850 C   0  0  0  0  0  3  0  0  0  0  0  0
   21.8400  -23.7460  -12.5840 C   0  0  0  0  0  3  0  0  0  0  0  0
   21.2510  -22.5250  -11.8600 C   0  0  0  0  0  2  0  0  0  0  0  0
   22.4350  -21.6040  -11.6510 C   0  0  0  0  0  3  0  0  0  0  0  0
   23.3710  -21.8950  -12.8230 C   0  0  0  0  0  2  0  0  0  0  0  0
   23.0210  -23.2360  -13.3080 N   0  0  0  0  0  0  0  0  0  0  0  0
   23.7630  -23.9520  -14.1900 C   0  0  0  0  0  0  0  0  0  0  0  0
   23.5190  -25.1410  -14.4310 O   0  0  0  0  0  0  0  0  0  0  0  0
   19.9880  -25.3120  -12.8530 N   0  0  0  0  0  0  0  0  0  0  0  0
   20.7500  -24.3940  -13.4570 C   0  0  0  0  0  0  0  0  0  0  0  0
   20.5700  -24.0250  -14.6190 O   0  0  0  0  0  0  0  0  0  0  0  0
   20.2170  -25.5670  -11.9020 H   0  0  0  0  0  0  0  0  0  0  0  0
   18.7820  -25.9050  -13.4180 C   0  0  0  0  0  2  0  0  0  0  0  0
   15.2340  -23.4580  -12.8140 C   0  0  0  0  0  0  0  0  0  0  0  0
   16.2320  -23.5140  -11.8200 C   0  0  0  0  0  3  0  0  0  0  0  0
   17.3810  -24.3010  -12.0130 C   0  0  0  0  0  3  0  0  0  0  0  0
   15.4000  -24.1930  -14.0060 C   0  0  0  0  0  3  0  0  0  0  0  0
   16.5500  -24.9800  -14.2000 C   0  0  0  0  0  3  0  0  0  0  0  0
   17.5470  -25.0400  -13.2040 C   0  0  0  0  0  0  0  0  0  0  0  0
   12.1780  -24.2060  -13.5290 C   0  0  0  0  0  1  0  0  0  0  0  0
   12.7270  -22.9590  -12.8640 C   0  0  0  0  0  0  0  0  0  0  0  0
   11.8270  -22.0050  -12.4360 N   0  0  0  0  0  0  0  0  0  0  0  0
   12.3590  -20.9340  -11.6030 C   0  0  0  0  0  2  0  0  0  0  0  0
   14.1540  -21.1140  -11.7930 S   0  0  0  0  0  0  0  0  0  0  0  0
   14.0040  -22.6900  -12.5560 C   0  0  0  0  0  0  0  0  0  0  0  0
   10.8200  -22.1230  -12.5000 H   0  0  0  0  0  0  0  0  0  0  0  0
   23.1010  -21.9240  -10.4400 O   0  0  0  0  0  0  0  0  0  0  0  0
   23.3890  -22.8300  -10.4840 H   0  0  0  0  0  0  0  0  0  0  0  0
   24.6550  -22.6520  -16.2860 C   0  0  1  0  0  0  0  0  0  0  0  0
   25.8980  -21.8800  -16.7910 C   0  0  0  0  0  1  0  0  0  0  0  0
   24.2760  -23.6950  -17.3690 C   0  0  0  0  0  1  0  0  0  0  0  0
   23.5030  -21.6340  -16.1870 C   0  0  0  0  0  1  0  0  0  0  0  0
  1  4  1  0
  1  2  1  0
  2  5  1  0
  2 46  1  0
  3 10  1  0
  3  1  1  0
  4  7  1  0
  6  3  1  0
  8 11  1  0
  8 10  1  0
  9  8  2  0
 10 14  1  0
 11 18  1  0
 12  9  1  0
 13  9  1  0
 15 11  1  0
 16 17  2  0
 18 19  1  0
 18 16  1  0
 20 16  1  0
 21 20  1  0
 21 22  1  0
 22 36  2  0
 23 21  1  0
 23 28  1  0
 24 23  2  0
 25 24  1  0
 25 26  2  0
 26 27  1  0
 26 28  1  0
 28 29  1  0
 29 35  2  0
 29 30  1  0
 30 31  1  0
 31 32  1  0
 33 31  2  0
 33 34  1  0
 35 33  1  0
 36 37  1  0
 36 35  1  0
 37 38  2  0
 37 43  1  0
 38 39  1  0
 39 40  2  0
 40 41  1  0
 42 40  1  0
 43 42  2  0
 44 45  1  0
 44  4  1  0
 46 47  1  0
 48 54  1  0
 48 49  1  0
 49 50  2  0
 51 47  1  0
 51 49  1  0
 52 48  1  0
 53 51  1  0
 54 60  1  0
 55 63  1  0
 55 56  1  0
 56 57  1  0
 57 80  1  0
 58 57  1  0
 59 58  1  0
 59 55  1  0
 60 59  1  0
 61 60  2  0
 62 65  1  0
 63 62  1  0
 64 63  2  0
 66 72  1  0
 66 62  1  0
 67 78  1  0
 67 68  1  0
 69 68  2  0
 70 67  2  0
 71 70  1  0
 71 72  2  0
 72 69  1  0
 73 74  1  0
 74 78  2  0
 74 75  1  0
 75 76  1  0
 77 76  1  0
 78 77  1  0
 79 75  1  0
 81 80  1  0
 82 85  1  1
 82 54  1  0
 83 82  1  0
 84 82  1  0
M  ISO  4  16 100  18 100  49 101  51 101
M  END
>  <TORSDO>  (64) 
F 16

>  <SCORE>  (64) 
-3.257

>  <name>  (64) 
63

>  <ligand_id>  (64) 
63

>  <original_smiles>  (64) 
[H]O[N+]([H])=C(N([H])N=NN([H])C(=O)N([H])C([H])(C(=O)N1C([H])([H])C([H])(O[H])C([H])([H])C1([H])C(=O)N([H])C([H])([H])c1c([H])c([H])c(C2=C(C([H])([H])[H])N([H])C([H])([H])S2)c([H])c1[H])C(C([H])([H])[H])(C([H])([H])[H])C([H])([H])[H])N([H])N([H])C(N([H])[H])=[N+]([H])N([H])C(=O)C([H])([H])C1([H])N=C(c2c([H])c([H])c(Cl)c([H])c2[H])c2c(sc(C([H])([H])[H])c2C([H])([H])[H])-n2c(C([H])([H])[H])nnc21

>  <smiles>  (64) 
[H]O[N+]([H])=C(N([H])N=NN([H])C(=O)N([H])C([H])(C(=O)N1C([H])([H])C([H])(O[H])C([H])([H])C1([H])C(=O)N([H])C([H])([H])c1c([H])c([H])c(C2=C(C([H])([H])[H])N([H])C([H])([H])S2)c([H])c1[H])C(C([H])([H])[H])(C([H])([H])[H])C([H])([H])[H])N([H])N([H])C(N([H])[H])=[N+]([H])N([H])C(=O)C([H])([H])C1([H])N=C(c2c([H])c([H])c(Cl)c([H])c2[H])c2c(sc(C([H])([H])[H])c2C([H])([H])[H])-n2c(C([H])([H])[H])nnc21

$$$$
64:0:0
     RDKit          3D

 80 86  0  0  1  0  0  0  0  0999 V2000
   26.8790  -26.9830  -16.1540 N   0  0  0  0  0  4  0  0  0  0  0  0
   27.0560  -26.1840  -16.7460 H   0  0  0  0  0  0  0  0  0  0  0  0
   27.6580  -27.5980  -16.3340 H   0  0  0  0  0  0  0  0  0  0  0  0
   25.8660  -24.6670  -15.3220 N   0  0  0  0  0  0  0  0  0  0  0  0
   26.8220  -25.1730  -14.5370 C   0  0  0  0  0  0  0  0  0  0  0  0
   27.3500  -24.5060  -13.6380 O   0  0  0  0  0  0  0  0  0  0  0  0
   27.0230  -26.5050  -14.6990 N   0  0  0  0  0  0  0  0  0  0  0  0
   25.4190  -25.3040  -15.9590 H   0  0  0  0  0  0  0  0  0  0  0  0
   27.6900  -27.0070  -14.1310 H   0  0  0  0  0  0  0  0  0  0  0  0
   24.9880  -23.5310  -15.0490 C   0  0  0  0  0  3  0  0  0  0  0  0
   21.7990  -23.8000  -12.7420 C   0  0  0  0  0  3  0  0  0  0  0  0
   21.2950  -22.5670  -11.9820 C   0  0  0  0  0  2  0  0  0  0  0  0
   22.5410  -21.7370  -11.7470 C   0  0  0  0  0  3  0  0  0  0  0  0
   23.4540  -22.0440  -12.9340 C   0  0  0  0  0  2  0  0  0  0  0  0
   23.0140  -23.3400  -13.4520 N   0  0  0  0  0  0  0  0  0  0  0  0
   23.7020  -24.0860  -14.3460 C   0  0  0  0  0  0  0  0  0  0  0  0
   23.3470  -25.2420  -14.5780 O   0  0  0  0  0  0  0  0  0  0  0  0
   19.8950  -25.2920  -13.0720 N   0  0  0  0  0  0  0  0  0  0  0  0
   20.6670  -24.3530  -13.6280 C   0  0  0  0  0  0  0  0  0  0  0  0
   20.4710  -23.9020  -14.7580 O   0  0  0  0  0  0  0  0  0  0  0  0
   20.1400  -25.6190  -12.1470 H   0  0  0  0  0  0  0  0  0  0  0  0
   18.6590  -25.8100  -13.6450 C   0  0  0  0  0  2  0  0  0  0  0  0
   15.1930  -23.3440  -12.7160 C   0  0  0  0  0  0  0  0  0  0  0  0
   16.2060  -23.5340  -11.7550 C   0  0  0  0  0  3  0  0  0  0  0  0
   17.3270  -24.3280  -12.0510 C   0  0  0  0  0  3  0  0  0  0  0  0
   15.3160  -23.9540  -13.9820 C   0  0  0  0  0  3  0  0  0  0  0  0
   16.4400  -24.7490  -14.2800 C   0  0  0  0  0  3  0  0  0  0  0  0
   17.4520  -24.9410  -13.3170 C   0  0  0  0  0  0  0  0  0  0  0  0
   12.1080  -23.8910  -13.4890 C   0  0  0  0  0  1  0  0  0  0  0  0
   12.7060  -22.7550  -12.6810 C   0  0  0  0  0  0  0  0  0  0  0  0
   11.8420  -21.8310  -12.1290 N   0  0  0  0  0  0  0  0  0  0  0  0
   12.4170  -20.8900  -11.1740 C   0  0  0  0  0  2  0  0  0  0  0  0
   14.2030  -21.1090  -11.4040 S   0  0  0  0  0  0  0  0  0  0  0  0
   13.9920  -22.5720  -12.3540 C   0  0  0  0  0  0  0  0  0  0  0  0
   10.8320  -21.9050  -12.1970 H   0  0  0  0  0  0  0  0  0  0  0  0
   23.1860  -22.1460  -10.5530 O   0  0  0  0  0  0  0  0  0  0  0  0
   23.4040  -23.0710  -10.6280 H   0  0  0  0  0  0  0  0  0  0  0  0
   24.7030  -22.8420  -16.4390 C   0  0  1  0  0  0  0  0  0  0  0  0
   26.0150  -22.2080  -16.9590 C   0  0  0  0  0  1  0  0  0  0  0  0
   24.1870  -23.8110  -17.5320 C   0  0  0  0  0  1  0  0  0  0  0  0
   23.6740  -21.6980  -16.3160 C   0  0  0  0  0  1  0  0  0  0  0  0
   24.4100  -27.0100  -16.3710 C   0  0  0  0  0  2  0  0  0  0  0  0
   25.5650  -27.6690  -16.5450 C   0  0  0  0  0  0  0  0  0  0  0  0
   25.4980  -28.9380  -17.1210 N   0  0  0  0  0  0  0  0  0  0  0  0
   26.3290  -29.5160  -17.1770 H   0  0  0  0  0  0  0  0  0  0  0  0
   24.4810  -29.2900  -18.1260 C   0  0  0  0  0  2  0  0  0  0  0  0
   23.3160  -30.1230  -17.6330 C   0  0  0  0  0  0  0  0  0  0  0  0
   22.0730  -29.5870  -17.4710 N   0  0  0  0  0  0  0  0  0  0  0  0
   23.5500  -31.4290  -17.4230 N   0  0  0  0  0  4  0  0  0  0  0  0
   21.9170  -28.5920  -17.5740 H   0  0  0  0  0  0  0  0  0  0  0  0
   24.4780  -31.7930  -17.5850 H   0  0  0  0  0  0  0  0  0  0  0  0
   22.9500  -31.9820  -16.8120 H   0  0  0  0  0  0  0  0  0  0  0  0
   20.4090  -30.9700  -16.4800 C   0  0  0  0  0  0  0  0  0  0  0  0
   20.1820  -30.3960  -15.4060 O   0  0  0  0  0  0  0  0  0  0  0  0
   20.9420  -30.4110  -17.5810 N   0  0  0  0  0  0  0  0  0  0  0  0
   21.0940  -30.9570  -18.4170 H   0  0  0  0  0  0  0  0  0  0  0  0
   20.1940  -32.4760  -16.6280 C   0  0  0  0  0  2  0  0  0  0  0  0
   20.8690  -33.2940  -15.5030 C   0  0  0  0  0  3  0  0  0  0  0  0
   22.2560  -32.8570  -15.2940 N   0  0  0  0  0  0  0  0  0  0  0  0
   20.8410  -34.7880  -15.7570 C   0  0  0  0  0  0  0  0  0  0  0  0
   20.5030  -35.4000  -16.8990 N   0  0  0  0  0  0  0  0  0  0  0  0
   20.7200  -36.7460  -16.6790 N   0  0  0  0  0  0  0  0  0  0  0  0
   21.1880  -36.8390  -15.4290 C   0  0  0  0  0  0  0  0  0  0  0  0
   21.6120  -38.1310  -14.8030 C   0  0  0  0  0  1  0  0  0  0  0  0
   21.2630  -35.6430  -14.8070 N   0  0  0  0  0  0  0  0  0  0  0  0
   21.6620  -35.3050  -13.5000 C   0  0  0  0  0  0  0  0  0  0  0  0
   21.2600  -36.2000  -12.0700 S   0  0  0  0  0  0  0  0  0  0  0  0
   22.0220  -35.0070  -11.0570 C   0  0  0  0  0  0  0  0  0  0  0  0
   22.0260  -35.2000   -9.5740 C   0  0  0  0  0  1  0  0  0  0  0  0
   22.5420  -33.9600  -11.7880 C   0  0  0  0  0  0  0  0  0  0  0  0
   23.1930  -32.7660  -11.1360 C   0  0  0  0  0  1  0  0  0  0  0  0
   22.3660  -34.1560  -13.2050 C   0  0  0  0  0  0  0  0  0  0  0  0
   22.9050  -33.2160  -14.2440 C   0  0  0  0  0  0  0  0  0  0  0  0
   24.2780  -32.6910  -14.0730 C   0  0  0  0  0  0  0  0  0  0  0  0
   25.3340  -33.5700  -13.7460 C   0  0  0  0  0  3  0  0  0  0  0  0
   26.6370  -33.0700  -13.5570 C   0  0  0  0  0  3  0  0  0  0  0  0
   26.8880  -31.6930  -13.6930 C   0  0  0  0  0  0  0  0  0  0  0  0
   28.4810  -31.0780  -13.4650 Cl  0  0  0  0  0  0  0  0  0  0  0  0
   25.8380  -30.8150  -14.0110 C   0  0  0  0  0  3  0  0  0  0  0  0
   24.5350  -31.3090  -14.2060 C   0  0  0  0  0  3  0  0  0  0  0  0
  1  7  1  0
  2  1  1  0
  3  1  1  0
  4 10  1  0
  4  5  1  0
  5  6  2  0
  7  5  1  0
  7  9  1  0
  8  4  1  0
 10 16  1  0
 11 19  1  0
 11 12  1  0
 12 13  1  0
 13 36  1  0
 14 13  1  0
 15 14  1  0
 15 11  1  0
 16 15  1  0
 17 16  2  0
 18 21  1  0
 19 18  1  0
 20 19  2  0
 22 28  1  0
 22 18  1  0
 23 34  1  0
 23 24  1  0
 25 24  2  0
 26 23  2  0
 27 26  1  0
 27 28  2  0
 28 25  1  0
 29 30  1  0
 30 34  2  0
 30 31  1  0
 31 32  1  0
 33 32  1  0
 34 33  1  0
 35 31  1  0
 37 36  1  0
 38 41  1  1
 38 10  1  0
 39 38  1  0
 40 38  1  0
 43 42  2  0
 43  1  1  0
 44 43  1  0
 45 44  1  0
 46 47  1  0
 46 44  1  0
 47 48  1  0
 47 49  2  0
 49 52  1  0
 50 48  1  0
 51 49  1  0
 53 54  2  0
 55 48  1  0
 55 53  1  0
 56 55  1  0
 57 53  1  0
 58 57  1  0
 58 59  1  0
 59 73  2  0
 60 58  1  0
 60 65  1  0
 61 62  1  0
 61 60  2  0
 62 63  2  0
 63 65  1  0
 63 64  1  0
 65 66  1  0
 66 72  2  0
 66 67  1  0
 67 68  1  0
 68 69  1  0
 70 71  1  0
 70 68  2  0
 72 70  1  0
 73 74  1  0
 73 72  1  0
 74 75  1  0
 75 76  2  0
 77 76  1  0
 77 78  1  0
 79 77  2  0
 80 74  2  0
 80 79  1  0
M  ISO  4   5 101   7 101  53 100  55 100
M  END
>  <TORSDO>  (65) 
F 17

>  <SCORE>  (65) 
-9.411

>  <name>  (65) 
64

>  <ligand_id>  (65) 
64

>  <original_smiles>  (65) 
[H]OC1([H])C([H])([H])N(C(=O)C([H])(N([H])C(=O)N([H])[N+]([H])([H])C(=C([H])[H])N([H])C([H])([H])C(N([H])N([H])C(=O)C([H])([H])C2([H])N=C(c3c([H])c([H])c(Cl)c([H])c3[H])c3c(sc(C([H])([H])[H])c3C([H])([H])[H])-n3c(C([H])([H])[H])nnc32)=[N+]([H])[H])C(C([H])([H])[H])(C([H])([H])[H])C([H])([H])[H])C([H])(C(=O)N([H])C([H])([H])c2c([H])c([H])c(C3=C(C([H])([H])[H])N([H])C([H])([H])S3)c([H])c2[H])C1([H])[H]

>  <smiles>  (65) 
[H]OC1([H])C([H])([H])N(C(=O)C([H])(N([H])C(=O)N([H])[N+]([H])([H])C(=C([H])[H])N([H])C([H])([H])C(N([H])N([H])C(=O)C([H])([H])C2([H])N=C(c3c([H])c([H])c(Cl)c([H])c3[H])c3c(sc(C([H])([H])[H])c3C([H])([H])[H])-n3c(C([H])([H])[H])nnc32)=[N+]([H])[H])C(C([H])([H])[H])(C([H])([H])[H])C([H])([H])[H])C([H])(C(=O)N([H])C([H])([H])c2c([H])c([H])c(C3=C(C([H])([H])[H])N([H])C([H])([H])S3)c([H])c2[H])C1([H])[H]

$$$$
65:0:0
     RDKit          3D

 81 87  0  0  1  0  0  0  0  0999 V2000
   24.8020  -27.3280  -15.5150 C   0  0  0  0  0  3  0  0  0  0  0  0
   23.9230  -27.9890  -14.4860 C   0  0  0  0  0  1  0  0  0  0  0  0
   24.5140  -27.3530  -16.8380 N   0  0  0  0  0  0  0  0  0  0  0  0
   25.9250  -26.7070  -15.0880 N   0  0  0  0  0  0  0  0  0  0  0  0
   25.2460  -27.1190  -17.4970 H   0  0  0  0  0  0  0  0  0  0  0  0
   26.1370  -26.6250  -14.1000 H   0  0  0  0  0  0  0  0  0  0  0  0
   25.3600  -24.2760  -16.4510 N   0  0  0  0  0  0  0  0  0  0  0  0
   26.4660  -24.6530  -15.8030 C   0  0  0  0  0  0  0  0  0  0  0  0
   27.0830  -23.9510  -15.0040 O   0  0  0  0  0  0  0  0  0  0  0  0
   26.7230  -25.9490  -15.9660 N   0  0  0  0  0  0  0  0  0  0  0  0
   24.9810  -24.9180  -17.1250 H   0  0  0  0  0  0  0  0  0  0  0  0
   27.6580  -26.2470  -15.7210 H   0  0  0  0  0  0  0  0  0  0  0  0
   24.4290  -23.2320  -16.0190 C   0  0  0  0  0  3  0  0  0  0  0  0
   21.6600  -23.9380  -13.3190 C   0  0  0  0  0  3  0  0  0  0  0  0
   21.2590  -22.8310  -12.3340 C   0  0  0  0  0  2  0  0  0  0  0  0
   22.5020  -21.9790  -12.1910 C   0  0  0  0  0  3  0  0  0  0  0  0
   23.2200  -22.1090  -13.5300 C   0  0  0  0  0  2  0  0  0  0  0  0
   22.7330  -23.3510  -14.1450 N   0  0  0  0  0  0  0  0  0  0  0  0
   23.2820  -23.9430  -15.2360 C   0  0  0  0  0  0  0  0  0  0  0  0
   22.9440  -25.0750  -15.6040 O   0  0  0  0  0  0  0  0  0  0  0  0
   19.6790  -25.3590  -13.4700 N   0  0  0  0  0  0  0  0  0  0  0  0
   20.4120  -24.4170  -14.0770 C   0  0  0  0  0  0  0  0  0  0  0  0
   20.0940  -23.9080  -15.1540 O   0  0  0  0  0  0  0  0  0  0  0  0
   20.0210  -25.7410  -12.6000 H   0  0  0  0  0  0  0  0  0  0  0  0
   18.3650  -25.8140  -13.9100 C   0  0  0  0  0  2  0  0  0  0  0  0
   15.1450  -23.1500  -12.6960 C   0  0  0  0  0  0  0  0  0  0  0  0
   16.2420  -23.3710  -11.8380 C   0  0  0  0  0  3  0  0  0  0  0  0
   17.2850  -24.2280  -12.2290 C   0  0  0  0  0  3  0  0  0  0  0  0
   15.1040  -23.7930  -13.9510 C   0  0  0  0  0  3  0  0  0  0  0  0
   16.1500  -24.6500  -14.3430 C   0  0  0  0  0  3  0  0  0  0  0  0
   17.2450  -24.8730  -13.4840 C   0  0  0  0  0  0  0  0  0  0  0  0
   11.9730  -23.5620  -13.1370 C   0  0  0  0  0  1  0  0  0  0  0  0
   12.7040  -22.4430  -12.4210 C   0  0  0  0  0  0  0  0  0  0  0  0
   11.9440  -21.4690  -11.8040 N   0  0  0  0  0  0  0  0  0  0  0  0
   12.6570  -20.5390  -10.9370 C   0  0  0  0  0  2  0  0  0  0  0  0
   14.3980  -20.8510  -11.3360 S   0  0  0  0  0  0  0  0  0  0  0  0
   14.0240  -22.3170  -12.2300 C   0  0  0  0  0  0  0  0  0  0  0  0
   10.9300  -21.4960  -11.7650 H   0  0  0  0  0  0  0  0  0  0  0  0
   23.3380  -22.4920  -11.1670 O   0  0  0  0  0  0  0  0  0  0  0  0
   23.5530  -23.3960  -11.3760 H   0  0  0  0  0  0  0  0  0  0  0  0
   23.9350  -22.4550  -17.2940 C   0  0  1  0  0  0  0  0  0  0  0  0
   25.1210  -21.6280  -17.8470 C   0  0  0  0  0  1  0  0  0  0  0  0
   23.4250  -23.3810  -18.4250 C   0  0  0  0  0  1  0  0  0  0  0  0
   22.8010  -21.4660  -16.9510 C   0  0  0  0  0  1  0  0  0  0  0  0
   23.3420  -28.3920  -18.6440 C   0  0  0  0  0  3  0  0  0  0  0  0
   22.7390  -29.4320  -19.1090 N   0  0  0  0  0  2  0  0  0  0  0  0
   23.3180  -27.8550  -17.3580 N   0  0  0  0  0  0  0  0  0  0  0  0
   22.5980  -27.1640  -17.1370 H   0  0  0  0  0  0  0  0  0  0  0  0
   22.0270  -30.1380  -18.1240 N   0  0  0  0  0  4  0  0  0  0  0  0
   22.6260  -30.8730  -17.7640 H   0  0  0  0  0  0  0  0  0  0  0  0
   21.8220  -29.5000  -17.3680 H   0  0  0  0  0  0  0  0  0  0  0  0
   20.5260  -31.5820  -17.5390 C   0  0  0  0  0  0  0  0  0  0  0  0
   20.0480  -31.1650  -16.4810 O   0  0  0  0  0  0  0  0  0  0  0  0
   20.7620  -30.7520  -18.5550 N   0  0  0  0  0  0  0  0  0  0  0  0
   20.0750  -30.0250  -18.6970 H   0  0  0  0  0  0  0  0  0  0  0  0
   21.0130  -33.0380  -17.6660 C   0  0  0  0  0  2  0  0  0  0  0  0
   21.4780  -33.6390  -16.3170 C   0  0  0  0  0  3  0  0  0  0  0  0
   22.8030  -33.0910  -15.9880 N   0  0  0  0  0  0  0  0  0  0  0  0
   21.5110  -35.1610  -16.3070 C   0  0  0  0  0  0  0  0  0  0  0  0
   21.3150  -35.9720  -17.3570 N   0  0  0  0  0  0  0  0  0  0  0  0
   21.5130  -37.2560  -16.8800 N   0  0  0  0  0  0  0  0  0  0  0  0
   21.8190  -37.1200  -15.5870 C   0  0  0  0  0  0  0  0  0  0  0  0
   22.1710  -38.2790  -14.7000 C   0  0  0  0  0  1  0  0  0  0  0  0
   21.8060  -35.8330  -15.1770 N   0  0  0  0  0  0  0  0  0  0  0  0
   22.0240  -35.2720  -13.9070 C   0  0  0  0  0  0  0  0  0  0  0  0
   21.4550  -35.9340  -12.4090 S   0  0  0  0  0  0  0  0  0  0  0  0
   22.0570  -34.5620  -11.5240 C   0  0  0  0  0  0  0  0  0  0  0  0
   21.8730  -34.5120  -10.0410 C   0  0  0  0  0  1  0  0  0  0  0  0
   22.6560  -33.6350  -12.3510 C   0  0  0  0  0  0  0  0  0  0  0  0
   23.2030  -32.3270  -11.8400 C   0  0  0  0  0  1  0  0  0  0  0  0
   22.6700  -34.0670  -13.7250 C   0  0  0  0  0  0  0  0  0  0  0  0
   23.3250  -33.2870  -14.8300 C   0  0  0  0  0  0  0  0  0  0  0  0
   24.6670  -32.7090  -14.5860 C   0  0  0  0  0  0  0  0  0  0  0  0
   25.5550  -33.3330  -13.6830 C   0  0  0  0  0  3  0  0  0  0  0  0
   26.8160  -32.7630  -13.4220 C   0  0  0  0  0  3  0  0  0  0  0  0
   27.1970  -31.5740  -14.0700 C   0  0  0  0  0  0  0  0  0  0  0  0
   28.7320  -30.8610  -13.7540 Cl  0  0  0  0  0  0  0  0  0  0  0  0
   26.3250  -30.9630  -14.9830 C   0  0  0  0  0  3  0  0  0  0  0  0
   25.0630  -31.5240  -15.2410 C   0  0  0  0  0  3  0  0  0  0  0  0
   24.1960  -27.7000  -19.4710 O   0  0  0  0  0  0  0  0  0  0  0  0
   24.2330  -28.2010  -20.2790 H   0  0  0  0  0  0  0  0  0  0  0  0
  1  4  1  0
  1  2  1  0
  3  1  1  0
  4  6  1  0
  5  3  1  0
  7 13  1  0
  7  8  1  0
  8  9  2  0
 10  8  1  0
 10 12  1  0
 10  4  1  0
 11  7  1  0
 13 19  1  0
 14 22  1  0
 14 15  1  0
 15 16  1  0
 16 39  1  0
 17 16  1  0
 18 17  1  0
 18 14  1  0
 19 18  1  0
 20 19  2  0
 21 24  1  0
 22 21  1  0
 23 22  2  0
 25 31  1  0
 25 21  1  0
 26 37  1  0
 26 27  1  0
 28 27  2  0
 29 26  2  0
 30 29  1  0
 30 31  2  0
 31 28  1  0
 32 33  1  0
 33 37  2  0
 33 34  1  0
 34 38  1  0
 34 35  1  0
 36 35  1  0
 37 36  1  0
 40 39  1  0
 41 44  1  1
 41 13  1  0
 42 41  1  0
 43 41  1  0
 45 80  1  0
 45 47  1  0
 46 45  1  0
 46 49  1  0
 47 48  1  0
 47  3  1  0
 49 50  1  0
 49 51  1  0
 52 53  2  0
 54 49  1  0
 54 52  1  0
 55 54  1  0
 56 52  1  0
 57 56  1  0
 57 59  1  0
 57 58  1  0
 58 72  2  0
 59 64  1  0
 60 61  1  0
 60 59  2  0
 61 62  2  0
 62 64  1  0
 62 63  1  0
 64 65  1  0
 65 71  2  0
 65 66  1  0
 66 67  1  0
 67 68  1  0
 69 70  1  0
 69 67  2  0
 71 69  1  0
 72 73  1  0
 72 71  1  0
 73 74  1  0
 74 75  2  0
 76 77  1  0
 76 75  1  0
 78 76  2  0
 79 78  1  0
 79 73  2  0
 81 80  1  0
M  ISO  4   8 101  10 101  52 100  54 100
M  END
>  <TORSDO>  (66) 
F 16

>  <SCORE>  (66) 
-12.197

>  <name>  (66) 
65

>  <ligand_id>  (66) 
65

>  <original_smiles>  (66) 
[H]OC(=N[N+]([H])([H])N([H])C(=O)C([H])([H])C1([H])N=C(c2c([H])c([H])c(Cl)c([H])c2[H])c2c(sc(C([H])([H])[H])c2C([H])([H])[H])-n2c(C([H])([H])[H])nnc21)N([H])N([H])C(=[N+]([H])N([H])C(=O)N([H])C([H])(C(=O)N1C([H])([H])C([H])(O[H])C([H])([H])C1([H])C(=O)N([H])C([H])([H])c1c([H])c([H])c(C2=C(C([H])([H])[H])N([H])C([H])([H])S2)c([H])c1[H])C(C([H])([H])[H])(C([H])([H])[H])C([H])([H])[H])C([H])([H])[H]

>  <smiles>  (66) 
[H]OC(=N[N+]([H])([H])N([H])C(=O)C([H])([H])C1([H])N=C(c2c([H])c([H])c(Cl)c([H])c2[H])c2c(sc(C([H])([H])[H])c2C([H])([H])[H])-n2c(C([H])([H])[H])nnc21)N([H])N([H])C(=[N+]([H])N([H])C(=O)N([H])C([H])(C(=O)N1C([H])([H])C([H])(O[H])C([H])([H])C1([H])C(=O)N([H])C([H])([H])c1c([H])c([H])c(C2=C(C([H])([H])[H])N([H])C([H])([H])S2)c([H])c1[H])C(C([H])([H])[H])(C([H])([H])[H])C([H])([H])[H])C([H])([H])[H]

$$$$
66:0:0
     RDKit          3D

 77 84  0  0  1  0  0  0  0  0999 V2000
   25.3630  -27.3850  -15.1800 N   0  0  0  0  0  0  0  0  0  0  0  0
   25.2630  -28.0770  -14.4500 H   0  0  0  0  0  0  0  0  0  0  0  0
   23.1750  -27.6900  -20.6850 C   0  0  0  0  0  2  0  0  0  0  0  0
   23.6870  -27.0140  -19.3970 C   0  0  0  0  0  2  0  0  0  0  0  0
   23.0490  -29.0270  -16.5760 C   0  0  0  0  0  2  0  0  0  0  0  0
   21.4050  -29.0940  -19.8280 C   0  0  0  0  0  2  0  0  0  0  0  0
   22.4690  -29.7230  -17.8540 C   0  0  0  0  0  3  0  0  0  0  0  0
   25.3390  -27.9790  -16.5070 C   0  0  0  0  0  3  0  0  0  0  0  0
   22.6290  -28.9980  -20.5010 O   0  0  0  0  0  0  0  0  0  0  0  0
   24.4910  -29.1110  -16.6100 O   0  0  0  0  0  0  0  0  0  0  0  0
   24.7870  -27.7000  -18.8040 O   0  0  0  0  0  0  0  0  0  0  0  0
   21.5170  -28.8890  -18.4510 O   0  0  0  0  0  0  0  0  0  0  0  0
   25.0810  -27.0260  -17.4850 O   0  0  0  0  0  0  0  0  0  0  0  0
   22.0880  -31.0860  -17.7490 O   0  0  0  0  0  0  0  0  0  0  0  0
   20.9970  -31.5370  -17.0310 C   0  0  0  0  0  0  0  0  0  0  0  0
   20.3030  -30.9080  -16.2280 O   0  0  0  0  0  0  0  0  0  0  0  0
   20.8800  -33.0650  -17.1680 C   0  0  0  0  0  2  0  0  0  0  0  0
   21.4090  -33.7850  -15.9020 C   0  0  0  0  0  3  0  0  0  0  0  0
   22.7480  -33.2920  -15.5780 N   0  0  0  0  0  0  0  0  0  0  0  0
   21.4360  -35.3030  -15.9760 C   0  0  0  0  0  0  0  0  0  0  0  0
   21.2460  -36.0620  -17.0610 N   0  0  0  0  0  0  0  0  0  0  0  0
   21.4710  -37.3640  -16.6520 N   0  0  0  0  0  0  0  0  0  0  0  0
   21.7950  -37.2880  -15.3560 C   0  0  0  0  0  0  0  0  0  0  0  0
   22.1820  -38.4780  -14.5300 C   0  0  0  0  0  1  0  0  0  0  0  0
   21.7620  -36.0220  -14.8830 N   0  0  0  0  0  0  0  0  0  0  0  0
   21.9970  -35.5200  -13.5870 C   0  0  0  0  0  0  0  0  0  0  0  0
   21.4580  -36.2520  -12.1120 S   0  0  0  0  0  0  0  0  0  0  0  0
   22.0630  -34.9140  -11.1740 C   0  0  0  0  0  0  0  0  0  0  0  0
   21.9000  -34.9230   -9.6870 C   0  0  0  0  0  1  0  0  0  0  0  0
   22.6350  -33.9430  -11.9660 C   0  0  0  0  0  0  0  0  0  0  0  0
   23.1700  -32.6490  -11.4050 C   0  0  0  0  0  1  0  0  0  0  0  0
   22.6360  -34.3200  -13.3560 C   0  0  0  0  0  0  0  0  0  0  0  0
   23.2750  -33.4990  -14.4310 C   0  0  0  0  0  0  0  0  0  0  0  0
   24.6050  -32.9100  -14.1750 C   0  0  0  0  0  0  0  0  0  0  0  0
   25.6300  -33.6800  -13.5890 C   0  0  0  0  0  3  0  0  0  0  0  0
   26.8850  -33.0980  -13.3240 C   0  0  0  0  0  3  0  0  0  0  0  0
   27.1200  -31.7500  -13.6500 C   0  0  0  0  0  0  0  0  0  0  0  0
   28.6500  -31.0260  -13.3300 Cl  0  0  0  0  0  0  0  0  0  0  0  0
   26.1020  -30.9850  -14.2370 C   0  0  0  0  0  3  0  0  0  0  0  0
   24.8470  -31.5630  -14.4960 C   0  0  0  0  0  3  0  0  0  0  0  0
   26.6840  -26.7320  -14.9170 O   0  0  0  0  0  0  0  0  0  0  0  0
   25.8140  -24.7790  -15.5070 N   0  0  0  0  0  0  0  0  0  0  0  0
   26.6760  -25.3700  -14.6300 C   0  0  0  0  0  0  0  0  0  0  0  0
   27.2740  -24.7970  -13.7090 O   0  0  0  0  0  0  0  0  0  0  0  0
   25.4260  -25.4460  -16.1590 H   0  0  0  0  0  0  0  0  0  0  0  0
   24.9500  -23.6440  -15.2460 C   0  0  0  0  0  3  0  0  0  0  0  0
   21.8640  -23.9830  -12.8290 C   0  0  0  0  0  3  0  0  0  0  0  0
   21.4330  -22.7850  -11.9700 C   0  0  0  0  0  2  0  0  0  0  0  0
   22.7130  -22.0110  -11.7370 C   0  0  0  0  0  3  0  0  0  0  0  0
   23.5700  -22.2790  -12.9750 C   0  0  0  0  0  2  0  0  0  0  0  0
   23.0620  -23.5240  -13.5610 N   0  0  0  0  0  0  0  0  0  0  0  0
   23.6770  -24.2180  -14.5480 C   0  0  0  0  0  0  0  0  0  0  0  0
   23.2730  -25.3380  -14.8840 O   0  0  0  0  0  0  0  0  0  0  0  0
   19.8860  -25.3730  -13.1600 N   0  0  0  0  0  0  0  0  0  0  0  0
   20.6800  -24.4420  -13.6980 C   0  0  0  0  0  0  0  0  0  0  0  0
   20.4650  -23.9260  -14.7970 O   0  0  0  0  0  0  0  0  0  0  0  0
   20.1430  -25.7540  -12.2590 H   0  0  0  0  0  0  0  0  0  0  0  0
   18.6100  -25.8080  -13.7140 C   0  0  0  0  0  2  0  0  0  0  0  0
   15.3040  -23.1930  -12.6330 C   0  0  0  0  0  0  0  0  0  0  0  0
   16.3440  -23.4360  -11.7130 C   0  0  0  0  0  3  0  0  0  0  0  0
   17.4150  -24.2770  -12.0600 C   0  0  0  0  0  3  0  0  0  0  0  0
   15.3490  -23.7970  -13.9070 C   0  0  0  0  0  3  0  0  0  0  0  0
   16.4220  -24.6380  -14.2550 C   0  0  0  0  0  3  0  0  0  0  0  0
   17.4600  -24.8850  -13.3330 C   0  0  0  0  0  0  0  0  0  0  0  0
   12.1630  -23.6340  -13.2290 C   0  0  0  0  0  1  0  0  0  0  0  0
   12.8440  -22.5120  -12.4720 C   0  0  0  0  0  0  0  0  0  0  0  0
   12.0460  -21.5470  -11.8890 N   0  0  0  0  0  0  0  0  0  0  0  0
   12.7070  -20.6160  -10.9830 C   0  0  0  0  0  2  0  0  0  0  0  0
   14.4690  -20.9040  -11.3040 S   0  0  0  0  0  0  0  0  0  0  0  0
   14.1540  -22.3720  -12.2180 C   0  0  0  0  0  0  0  0  0  0  0  0
   11.0320  -21.5850  -11.9000 H   0  0  0  0  0  0  0  0  0  0  0  0
   23.3880  -22.5070  -10.5930 O   0  0  0  0  0  0  0  0  0  0  0  0
   23.5790  -23.4290  -10.7320 H   0  0  0  0  0  0  0  0  0  0  0  0
   24.6660  -22.9720  -16.6360 C   0  0  1  0  0  0  0  0  0  0  0  0
   25.9790  -22.3460  -17.1600 C   0  0  0  0  0  1  0  0  0  0  0  0
   24.1690  -23.9650  -17.7080 C   0  0  0  0  0  1  0  0  0  0  0  0
   23.6260  -21.8410  -16.5270 C   0  0  0  0  0  1  0  0  0  0  0  0
  1 41  1  0
  1  2  1  0
  3  9  1  0
  3  4  1  0
  4 11  1  0
  6 12  1  0
  7 14  1  0
  7  5  1  0
  8  1  1  0
  9  6  1  0
 10  5  1  0
 10  8  1  0
 11 13  1  0
 12  7  1  0
 13  8  1  0
 14 15  1  0
 15 16  2  0
 17 15  1  0
 18 17  1  0
 18 19  1  0
 19 33  2  0
 20 18  1  0
 20 25  1  0
 21 22  1  0
 21 20  2  0
 22 23  2  0
 23 25  1  0
 23 24  1  0
 25 26  1  0
 26 32  2  0
 26 27  1  0
 27 28  1  0
 28 29  1  0
 30 31  1  0
 30 28  2  0
 32 30  1  0
 33 34  1  0
 33 32  1  0
 34 35  1  0
 35 36  2  0
 37 38  1  0
 37 36  1  0
 39 37  2  0
 40 39  1  0
 40 34  2  0
 41 43  1  0
 42 46  1  0
 42 43  1  0
 43 44  2  0
 45 42  1  0
 46 52  1  0
 47 55  1  0
 47 48  1  0
 48 49  1  0
 49 72  1  0
 50 49  1  0
 51 50  1  0
 51 47  1  0
 52 51  1  0
 53 52  2  0
 54 57  1  0
 55 54  1  0
 56 55  2  0
 58 64  1  0
 58 54  1  0
 59 70  1  0
 59 60  1  0
 61 60  2  0
 62 59  2  0
 63 62  1  0
 63 64  2  0
 64 61  1  0
 65 66  1  0
 66 70  2  0
 66 67  1  0
 67 68  1  0
 69 68  1  0
 70 69  1  0
 71 67  1  0
 73 72  1  0
 74 77  1  1
 74 46  1  0
 75 74  1  0
 76 74  1  0
M  ISO  4  14 100  15 100  41 101  43 101
M  END
>  <TORSDO>  (67) 
F 16

>  <SCORE>  (67) 
-14.465

>  <name>  (67) 
66

>  <ligand_id>  (67) 
66

>  <original_smiles>  (67) 
[H]OC1([H])C([H])([H])N(C(=O)C([H])(N([H])C(=O)ON([H])C2([H])OOC([H])([H])C([H])([H])OC([H])([H])OC([H])(OC(=O)C([H])([H])C3([H])N=C(c4c([H])c([H])c(Cl)c([H])c4[H])c4c(sc(C([H])([H])[H])c4C([H])([H])[H])-n4c(C([H])([H])[H])nnc43)C([H])([H])O2)C(C([H])([H])[H])(C([H])([H])[H])C([H])([H])[H])C([H])(C(=O)N([H])C([H])([H])c2c([H])c([H])c(C3=C(C([H])([H])[H])N([H])C([H])([H])S3)c([H])c2[H])C1([H])[H]

>  <smiles>  (67) 
[H]OC1([H])C([H])([H])N(C(=O)C([H])(N([H])C(=O)ON([H])C2([H])OOC([H])([H])C([H])([H])OC([H])([H])OC([H])(OC(=O)C([H])([H])C3([H])N=C(c4c([H])c([H])c(Cl)c([H])c4[H])c4c(sc(C([H])([H])[H])c4C([H])([H])[H])-n4c(C([H])([H])[H])nnc43)C([H])([H])O2)C(C([H])([H])[H])(C([H])([H])[H])C([H])([H])[H])C([H])(C(=O)N([H])C([H])([H])c2c([H])c([H])c(C3=C(C([H])([H])[H])N([H])C([H])([H])S3)c([H])c2[H])C1([H])[H]

$$$$
67:0:0
     RDKit          3D

 73 80  0  0  1  0  0  0  0  0999 V2000
   25.8540  -24.5370  -15.2960 N   0  0  0  0  0  0  0  0  0  0  0  0
   26.7900  -24.9710  -14.4690 C   0  0  0  0  0  0  0  0  0  0  0  0
   27.2410  -24.2850  -13.5380 O   0  0  0  0  0  0  0  0  0  0  0  0
   27.0000  -26.2920  -14.6910 N   0  0  0  0  0  0  0  0  0  0  0  0
   25.5520  -25.2170  -15.9750 H   0  0  0  0  0  0  0  0  0  0  0  0
   27.5560  -26.7650  -13.9920 H   0  0  0  0  0  0  0  0  0  0  0  0
   24.8950  -23.4630  -15.1410 C   0  0  0  0  0  3  0  0  0  0  0  0
   21.7670  -23.8380  -12.7860 C   0  0  0  0  0  3  0  0  0  0  0  0
   21.2460  -22.6150  -12.0150 C   0  0  0  0  0  2  0  0  0  0  0  0
   22.4740  -21.7540  -11.8020 C   0  0  0  0  0  3  0  0  0  0  0  0
   23.3760  -22.0500  -13.0010 C   0  0  0  0  0  2  0  0  0  0  0  0
   22.9580  -23.3570  -13.5170 N   0  0  0  0  0  0  0  0  0  0  0  0
   23.6460  -24.0790  -14.4380 C   0  0  0  0  0  0  0  0  0  0  0  0
   23.3350  -25.2470  -14.7080 O   0  0  0  0  0  0  0  0  0  0  0  0
   19.8730  -25.3460  -13.0770 N   0  0  0  0  0  0  0  0  0  0  0  0
   20.6340  -24.4110  -13.6540 C   0  0  0  0  0  0  0  0  0  0  0  0
   20.4240  -23.9750  -14.7890 O   0  0  0  0  0  0  0  0  0  0  0  0
   20.1280  -25.6580  -12.1510 H   0  0  0  0  0  0  0  0  0  0  0  0
   18.6360  -25.8810  -13.6320 C   0  0  0  0  0  2  0  0  0  0  0  0
   15.1570  -23.4230  -12.7380 C   0  0  0  0  0  0  0  0  0  0  0  0
   16.1550  -23.6190  -11.7620 C   0  0  0  0  0  3  0  0  0  0  0  0
   17.2810  -24.4100  -12.0480 C   0  0  0  0  0  3  0  0  0  0  0  0
   15.3010  -24.0230  -14.0070 C   0  0  0  0  0  3  0  0  0  0  0  0
   16.4290  -24.8140  -14.2930 C   0  0  0  0  0  3  0  0  0  0  0  0
   17.4260  -25.0130  -13.3160 C   0  0  0  0  0  0  0  0  0  0  0  0
   12.0960  -23.9240  -13.6310 C   0  0  0  0  0  1  0  0  0  0  0  0
   12.6720  -22.8210  -12.7650 C   0  0  0  0  0  0  0  0  0  0  0  0
   11.7950  -21.9100  -12.2110 N   0  0  0  0  0  0  0  0  0  0  0  0
   12.3430  -21.0070  -11.2050 C   0  0  0  0  0  2  0  0  0  0  0  0
   14.1350  -21.2290  -11.3830 S   0  0  0  0  0  0  0  0  0  0  0  0
   13.9480  -22.6570  -12.3890 C   0  0  0  0  0  0  0  0  0  0  0  0
   10.7870  -21.9760  -12.3150 H   0  0  0  0  0  0  0  0  0  0  0  0
   23.1440  -22.1390  -10.6130 O   0  0  0  0  0  0  0  0  0  0  0  0
   23.3930  -23.0550  -10.6900 H   0  0  0  0  0  0  0  0  0  0  0  0
   24.6070  -22.9410  -16.5970 C   0  0  1  0  0  0  0  0  0  0  0  0
   25.8820  -22.2520  -17.1380 C   0  0  0  0  0  1  0  0  0  0  0  0
   24.2160  -24.0660  -17.5920 C   0  0  0  0  0  1  0  0  0  0  0  0
   23.4810  -21.8860  -16.6130 C   0  0  0  0  0  1  0  0  0  0  0  0
   26.9740  -26.9550  -16.0330 C   0  0  0  0  0  2  0  0  0  0  0  0
   24.5540  -28.0380  -16.3160 C   0  0  0  0  0  3  0  0  0  0  0  0
   24.2190  -29.2590  -16.8850 C   0  0  0  0  0  0  0  0  0  0  0  0
   25.4200  -29.9090  -17.1600 N   0  0  0  0  0  0  0  0  0  0  0  0
   26.4300  -29.1740  -16.8160 N   0  0  0  0  0  0  0  0  0  0  0  0
   25.9600  -28.0150  -16.2940 N   0  0  0  0  0  0  0  0  0  0  0  0
   22.9180  -29.9810  -17.3020 C   0  0  0  0  0  2  0  0  0  0  0  0
   20.6210  -30.5400  -16.2750 C   0  0  0  0  0  0  0  0  0  0  0  0
   19.8240  -30.1520  -15.4290 O   0  0  0  0  0  0  0  0  0  0  0  0
   21.6940  -29.7390  -16.5220 N   0  0  0  0  0  0  0  0  0  0  0  0
   21.6830  -28.8490  -16.0460 H   0  0  0  0  0  0  0  0  0  0  0  0
   20.4520  -31.9830  -16.8320 C   0  0  0  0  0  2  0  0  0  0  0  0
   20.9070  -33.0160  -15.7590 C   0  0  0  0  0  3  0  0  0  0  0  0
   22.2840  -32.6740  -15.4310 N   0  0  0  0  0  0  0  0  0  0  0  0
   20.8330  -34.4980  -16.1130 C   0  0  0  0  0  0  0  0  0  0  0  0
   20.5020  -35.0310  -17.2960 N   0  0  0  0  0  0  0  0  0  0  0  0
   20.6850  -36.3960  -17.1570 N   0  0  0  0  0  0  0  0  0  0  0  0
   21.1140  -36.5830  -15.9060 C   0  0  0  0  0  0  0  0  0  0  0  0
   21.5000  -37.9250  -15.3560 C   0  0  0  0  0  1  0  0  0  0  0  0
   21.1900  -35.4320  -15.2020 N   0  0  0  0  0  0  0  0  0  0  0  0
   21.5470  -35.2060  -13.8550 C   0  0  0  0  0  0  0  0  0  0  0  0
   21.0880  -36.2000  -12.5080 S   0  0  0  0  0  0  0  0  0  0  0  0
   21.8340  -35.0990  -11.3820 C   0  0  0  0  0  0  0  0  0  0  0  0
   21.7890  -35.3990   -9.9170 C   0  0  0  0  0  1  0  0  0  0  0  0
   22.3930  -34.0110  -12.0160 C   0  0  0  0  0  0  0  0  0  0  0  0
   23.0380  -32.8750  -11.2620 C   0  0  0  0  0  1  0  0  0  0  0  0
   22.2640  -34.1030  -13.4460 C   0  0  0  0  0  0  0  0  0  0  0  0
   22.8660  -33.1120  -14.3870 C   0  0  0  0  0  0  0  0  0  0  0  0
   24.2300  -32.6190  -14.1350 C   0  0  0  0  0  0  0  0  0  0  0  0
   25.2760  -33.5310  -13.8850 C   0  0  0  0  0  3  0  0  0  0  0  0
   26.5760  -33.0570  -13.6290 C   0  0  0  0  0  3  0  0  0  0  0  0
   26.8320  -31.6740  -13.6220 C   0  0  0  0  0  0  0  0  0  0  0  0
   28.4220  -31.0870  -13.3120 Cl  0  0  0  0  0  0  0  0  0  0  0  0
   25.7860  -30.7650  -13.8520 C   0  0  0  0  0  3  0  0  0  0  0  0
   24.4870  -31.2340  -14.1180 C   0  0  0  0  0  3  0  0  0  0  0  0
  1  7  1  0
  1  2  1  0
  2  3  2  0
  4  2  1  0
  4  6  1  0
  5  1  1  0
  7 13  1  0
  8 16  1  0
  8  9  1  0
  9 10  1  0
 10 33  1  0
 11 10  1  0
 12 11  1  0
 12  8  1  0
 13 12  1  0
 14 13  2  0
 15 18  1  0
 16 15  1  0
 17 16  2  0
 19 25  1  0
 19 15  1  0
 20 31  1  0
 20 21  1  0
 22 21  2  0
 23 20  2  0
 24 23  1  0
 24 25  2  0
 25 22  1  0
 26 27  1  0
 27 31  2  0
 27 28  1  0
 28 29  1  0
 30 29  1  0
 31 30  1  0
 32 28  1  0
 34 33  1  0
 35  7  1  0
 35 36  1  6
 37 35  1  0
 38 35  1  0
 39  4  1  0
 40 44  1  0
 41 40  2  0
 42 41  1  0
 42 43  2  0
 43 44  1  0
 44 39  1  0
 45 41  1  0
 45 48  1  0
 46 47  2  0
 48 46  1  0
 48 49  1  0
 50 46  1  0
 51 50  1  0
 51 52  1  0
 52 66  2  0
 53 51  1  0
 53 58  1  0
 54 55  1  0
 54 53  2  0
 55 56  2  0
 56 57  1  0
 56 58  1  0
 58 59  1  0
 59 65  2  0
 59 60  1  0
 60 61  1  0
 61 62  1  0
 63 61  2  0
 63 64  1  0
 65 63  1  0
 66 67  1  0
 66 65  1  0
 67 73  2  0
 67 68  1  0
 68 69  2  0
 69 70  1  0
 70 71  1  0
 72 70  2  0
 73 72  1  0
M  ISO  4   2 101   4 101  46 100  48 100
M  END
>  <TORSDO>  (68) 
F 15

>  <SCORE>  (68) 
-12.597

>  <name>  (68) 
67

>  <ligand_id>  (68) 
67

>  <original_smiles>  (68) 
[H]OC1([H])C([H])([H])N(C(=O)C([H])(N([H])C(=O)N([H])C([H])([H])n2nnc(C([H])([H])N([H])C(=O)C([H])([H])C3([H])N=C(c4c([H])c([H])c(Cl)c([H])c4[H])c4c(sc(C([H])([H])[H])c4C([H])([H])[H])-n4c(C([H])([H])[H])nnc43)c2[H])C(C([H])([H])[H])(C([H])([H])[H])C([H])([H])[H])C([H])(C(=O)N([H])C([H])([H])c2c([H])c([H])c(C3=C(C([H])([H])[H])N([H])C([H])([H])S3)c([H])c2[H])C1([H])[H]

>  <smiles>  (68) 
[H]OC1([H])C([H])([H])N(C(=O)C([H])(N([H])C(=O)N([H])C([H])([H])n2nnc(C([H])([H])N([H])C(=O)C([H])([H])C3([H])N=C(c4c([H])c([H])c(Cl)c([H])c4[H])c4c(sc(C([H])([H])[H])c4C([H])([H])[H])-n4c(C([H])([H])[H])nnc43)c2[H])C(C([H])([H])[H])(C([H])([H])[H])C([H])([H])[H])C([H])(C(=O)N([H])C([H])([H])c2c([H])c([H])c(C3=C(C([H])([H])[H])N([H])C([H])([H])S3)c([H])c2[H])C1([H])[H]

$$$$
68:0:0
     RDKit          3D

 79 85  0  0  1  0  0  0  0  0999 V2000
   24.2470  -27.4650  -14.7450 C   0  0  0  0  0  0  0  0  0  0  0  0
   24.4870  -27.2840  -13.4310 N   0  0  0  0  0  4  0  0  0  0  0  0
   25.2200  -27.1690  -15.6480 N   0  0  0  0  0  0  0  0  0  0  0  0
   23.8040  -27.5380  -12.7330 H   0  0  0  0  0  0  0  0  0  0  0  0
   25.3420  -26.8770  -13.0930 H   0  0  0  0  0  0  0  0  0  0  0  0
   25.1180  -27.4130  -16.6270 H   0  0  0  0  0  0  0  0  0  0  0  0
   25.4050  -24.5970  -16.0450 N   0  0  0  0  0  0  0  0  0  0  0  0
   26.3380  -25.0920  -15.2320 C   0  0  0  0  0  0  0  0  0  0  0  0
   26.9930  -24.3910  -14.4570 O   0  0  0  0  0  0  0  0  0  0  0  0
   26.3880  -26.4400  -15.2560 N   0  0  0  0  0  0  0  0  0  0  0  0
   25.0610  -25.2160  -16.7550 H   0  0  0  0  0  0  0  0  0  0  0  0
   26.9740  -27.0190  -14.6700 H   0  0  0  0  0  0  0  0  0  0  0  0
   24.4840  -23.5060  -15.7440 C   0  0  0  0  0  3  0  0  0  0  0  0
   21.5500  -23.9390  -13.1400 C   0  0  0  0  0  3  0  0  0  0  0  0
   21.1430  -22.7570  -12.2480 C   0  0  0  0  0  2  0  0  0  0  0  0
   22.4160  -21.9570  -12.0850 C   0  0  0  0  0  3  0  0  0  0  0  0
   23.2010  -22.1900  -13.3750 C   0  0  0  0  0  2  0  0  0  0  0  0
   22.6930  -23.4430  -13.9400 N   0  0  0  0  0  0  0  0  0  0  0  0
   23.2690  -24.1090  -14.9680 C   0  0  0  0  0  0  0  0  0  0  0  0
   22.8700  -25.2250  -15.3050 O   0  0  0  0  0  0  0  0  0  0  0  0
   19.5630  -25.3440  -13.3300 N   0  0  0  0  0  0  0  0  0  0  0  0
   20.3220  -24.4210  -13.9320 C   0  0  0  0  0  0  0  0  0  0  0  0
   20.0440  -23.9330  -15.0300 O   0  0  0  0  0  0  0  0  0  0  0  0
   19.8710  -25.6970  -12.4340 H   0  0  0  0  0  0  0  0  0  0  0  0
   18.2610  -25.8010  -13.7990 C   0  0  0  0  0  2  0  0  0  0  0  0
   15.0140  -23.1270  -12.6670 C   0  0  0  0  0  0  0  0  0  0  0  0
   16.0790  -23.3670  -11.7740 C   0  0  0  0  0  3  0  0  0  0  0  0
   17.1270  -24.2300  -12.1380 C   0  0  0  0  0  3  0  0  0  0  0  0
   15.0160  -23.7500  -13.9320 C   0  0  0  0  0  3  0  0  0  0  0  0
   16.0680  -24.6110  -14.2970 C   0  0  0  0  0  3  0  0  0  0  0  0
   17.1300  -24.8580  -13.4030 C   0  0  0  0  0  0  0  0  0  0  0  0
   11.8600  -23.4900  -13.2390 C   0  0  0  0  0  1  0  0  0  0  0  0
   12.5730  -22.3920  -12.4760 C   0  0  0  0  0  0  0  0  0  0  0  0
   11.8030  -21.4220  -11.8700 N   0  0  0  0  0  0  0  0  0  0  0  0
   12.4940  -20.5110  -10.9640 C   0  0  0  0  0  2  0  0  0  0  0  0
   14.2450  -20.8370  -11.3040 S   0  0  0  0  0  0  0  0  0  0  0  0
   13.8880  -22.2850  -12.2340 C   0  0  0  0  0  0  0  0  0  0  0  0
   10.7870  -21.4410  -11.8640 H   0  0  0  0  0  0  0  0  0  0  0  0
   23.1750  -22.4520  -10.9920 O   0  0  0  0  0  0  0  0  0  0  0  0
   23.3720  -23.3700  -11.1530 H   0  0  0  0  0  0  0  0  0  0  0  0
   24.0780  -22.8690  -17.1170 C   0  0  1  0  0  0  0  0  0  0  0  0
   25.3180  -22.1890  -17.7430 C   0  0  0  0  0  1  0  0  0  0  0  0
   23.5140  -23.8990  -18.1350 C   0  0  0  0  0  1  0  0  0  0  0  0
   23.0150  -21.7660  -16.9300 C   0  0  0  0  0  1  0  0  0  0  0  0
   22.8820  -28.0230  -15.1490 C   0  0  0  0  0  2  0  0  0  0  0  0
   21.9050  -28.4830  -17.4840 C   0  0  0  0  0  0  0  0  0  0  0  0
   22.4250  -27.7020  -16.5140 N   0  0  0  0  0  0  0  0  0  0  0  0
   21.4000  -27.9730  -18.4860 O   0  0  0  0  0  0  0  0  0  0  0  0
   22.3000  -26.7110  -16.6660 H   0  0  0  0  0  0  0  0  0  0  0  0
   23.2830  -30.4840  -18.1550 C   0  0  0  0  0  1  0  0  0  0  0  0
   22.0160  -30.0160  -17.4080 C   0  0  0  0  0  3  0  0  0  0  0  0
   20.2040  -31.5770  -17.0730 C   0  0  0  0  0  0  0  0  0  0  0  0
   19.6980  -31.1430  -16.0340 O   0  0  0  0  0  0  0  0  0  0  0  0
   20.8690  -30.7750  -17.9230 N   0  0  0  0  0  0  0  0  0  0  0  0
   21.0270  -31.1550  -18.8470 H   0  0  0  0  0  0  0  0  0  0  0  0
   20.3760  -33.0890  -17.2950 C   0  0  0  0  0  2  0  0  0  0  0  0
   20.9980  -33.7890  -16.0420 C   0  0  0  0  0  3  0  0  0  0  0  0
   22.2930  -33.1710  -15.7170 N   0  0  0  0  0  0  0  0  0  0  0  0
   21.1770  -35.2890  -16.1950 C   0  0  0  0  0  0  0  0  0  0  0  0
   20.9970  -36.0040  -17.3120 N   0  0  0  0  0  0  0  0  0  0  0  0
   21.3590  -37.3000  -16.9920 N   0  0  0  0  0  0  0  0  0  0  0  0
   21.7370  -37.2620  -15.7090 C   0  0  0  0  0  0  0  0  0  0  0  0
   22.2670  -38.4510  -14.9690 C   0  0  0  0  0  1  0  0  0  0  0  0
   21.6130  -36.0340  -15.1590 N   0  0  0  0  0  0  0  0  0  0  0  0
   21.8630  -35.5910  -13.8440 C   0  0  0  0  0  0  0  0  0  0  0  0
   21.4650  -36.4600  -12.3940 S   0  0  0  0  0  0  0  0  0  0  0  0
   21.9970  -35.1320  -11.4000 C   0  0  0  0  0  0  0  0  0  0  0  0
   21.9110  -35.2430   -9.9120 C   0  0  0  0  0  1  0  0  0  0  0  0
   22.4390  -34.0640  -12.1540 C   0  0  0  0  0  0  0  0  0  0  0  0
   22.8780  -32.7650  -11.5280 C   0  0  0  0  0  1  0  0  0  0  0  0
   22.4010  -34.3530  -13.5650 C   0  0  0  0  0  0  0  0  0  0  0  0
   22.9050  -33.4110  -14.6140 C   0  0  0  0  0  0  0  0  0  0  0  0
   24.2000  -32.7250  -14.3740 C   0  0  0  0  0  0  0  0  0  0  0  0
   25.3110  -33.4190  -13.8480 C   0  0  0  0  0  3  0  0  0  0  0  0
   26.5180  -32.7320  -13.5970 C   0  0  0  0  0  3  0  0  0  0  0  0
   26.6240  -31.3560  -13.8760 C   0  0  0  0  0  0  0  0  0  0  0  0
   28.0960  -30.5150  -13.5740 Cl  0  0  0  0  0  0  0  0  0  0  0  0
   25.5260  -30.6640  -14.4010 C   0  0  0  0  0  3  0  0  0  0  0  0
   24.3320  -31.3540  -14.6540 C   0  0  0  0  0  3  0  0  0  0  0  0
  1  2  2  0
  2  5  1  0
  2  4  1  0
  3 10  1  0
  3  1  1  0
  6  3  1  0
  7 13  1  0
  7  8  1  0
  8  9  2  0
 10  8  1  0
 10 12  1  0
 11  7  1  0
 13 19  1  0
 14 22  1  0
 14 15  1  0
 15 16  1  0
 16 39  1  0
 17 16  1  0
 18 17  1  0
 18 14  1  0
 19 18  1  0
 20 19  2  0
 21 24  1  0
 22 21  1  0
 23 22  2  0
 25 31  1  0
 25 21  1  0
 26 37  1  0
 26 27  1  0
 28 27  2  0
 29 26  2  0
 30 29  1  0
 30 31  2  0
 31 28  1  0
 32 33  1  0
 33 37  2  0
 33 34  1  0
 34 38  1  0
 34 35  1  0
 36 35  1  0
 37 36  1  0
 40 39  1  0
 41 44  1  1
 41 13  1  0
 42 41  1  0
 43 41  1  0
 45  1  1  0
 46 51  1  0
 46 47  1  0
 47 45  1  0
 48 46  2  0
 49 47  1  0
 51 50  1  0
 52 53  2  0
 54 51  1  0
 54 52  1  0
 55 54  1  0
 56 52  1  0
 57 56  1  0
 57 58  1  0
 58 72  2  0
 59 57  1  0
 59 64  1  0
 60 61  1  0
 60 59  2  0
 61 62  2  0
 62 64  1  0
 62 63  1  0
 64 65  1  0
 65 71  2  0
 65 66  1  0
 66 67  1  0
 67 68  1  0
 69 70  1  0
 69 67  2  0
 71 69  1  0
 72 73  1  0
 72 71  1  0
 73 74  1  0
 74 75  2  0
 76 75  1  0
 76 77  1  0
 78 76  2  0
 79 78  1  0
 79 73  2  0
M  ISO  4   8 101  10 101  52 100  54 100
M  END
>  <TORSDO>  (69) 
F 16

>  <SCORE>  (69) 
-6.513

>  <name>  (69) 
68

>  <ligand_id>  (69) 
68

>  <original_smiles>  (69) 
[H]OC1([H])C([H])([H])N(C(=O)C([H])(N([H])C(=O)N([H])[N+]([H])=C(N([H])[H])C([H])([H])N([H])C(=O)C([H])(N([H])C(=O)C([H])([H])C2([H])N=C(c3c([H])c([H])c(Cl)c([H])c3[H])c3c(sc(C([H])([H])[H])c3C([H])([H])[H])-n3c(C([H])([H])[H])nnc32)C([H])([H])[H])C(C([H])([H])[H])(C([H])([H])[H])C([H])([H])[H])C([H])(C(=O)N([H])C([H])([H])c2c([H])c([H])c(C3=C(C([H])([H])[H])N([H])C([H])([H])S3)c([H])c2[H])C1([H])[H]

>  <smiles>  (69) 
[H]OC1([H])C([H])([H])N(C(=O)C([H])(N([H])C(=O)N([H])[N+]([H])=C(N([H])[H])C([H])([H])N([H])C(=O)C([H])(N([H])C(=O)C([H])([H])C2([H])N=C(c3c([H])c([H])c(Cl)c([H])c3[H])c3c(sc(C([H])([H])[H])c3C([H])([H])[H])-n3c(C([H])([H])[H])nnc32)C([H])([H])[H])C(C([H])([H])[H])(C([H])([H])[H])C([H])([H])[H])C([H])(C(=O)N([H])C([H])([H])c2c([H])c([H])c(C3=C(C([H])([H])[H])N([H])C([H])([H])S3)c([H])c2[H])C1([H])[H]

$$$$
69:0:0
     RDKit          3D

 81 87  0  0  1  0  0  0  0  0999 V2000
   24.3650  -28.1350  -16.6650 C   0  0  0  0  0  3  0  0  0  0  0  0
   24.3150  -28.8990  -17.7840 N   0  0  0  0  0  0  0  0  0  0  0  0
   23.3350  -27.8330  -15.8350 N   0  0  0  0  0  0  0  0  0  0  0  0
   25.1350  -28.9980  -18.3660 H   0  0  0  0  0  0  0  0  0  0  0  0
   23.4550  -27.1240  -15.1090 H   0  0  0  0  0  0  0  0  0  0  0  0
   22.2540  -28.9490  -18.9380 C   0  0  0  0  0  0  0  0  0  0  0  0
   23.1690  -29.5900  -18.1930 N   0  0  0  0  0  0  0  0  0  0  0  0
   22.4760  -27.8550  -19.4630 O   0  0  0  0  0  0  0  0  0  0  0  0
   23.0610  -30.4550  -17.6800 H   0  0  0  0  0  0  0  0  0  0  0  0
   20.8750  -29.6130  -19.1010 C   0  0  0  0  0  2  0  0  0  0  0  0
   20.5840  -31.5210  -17.4550 C   0  0  0  0  0  0  0  0  0  0  0  0
   20.2430  -30.8870  -16.4510 O   0  0  0  0  0  0  0  0  0  0  0  0
   20.8370  -31.0030  -18.6670 N   0  0  0  0  0  0  0  0  0  0  0  0
   21.0780  -31.6700  -19.3890 H   0  0  0  0  0  0  0  0  0  0  0  0
   20.7780  -33.0330  -17.4340 C   0  0  0  0  0  2  0  0  0  0  0  0
   21.3110  -33.6440  -16.1240 C   0  0  0  0  0  3  0  0  0  0  0  0
   22.6430  -33.1180  -15.8060 N   0  0  0  0  0  0  0  0  0  0  0  0
   21.3610  -35.1610  -16.2020 C   0  0  0  0  0  0  0  0  0  0  0  0
   21.1660  -35.9120  -17.2950 N   0  0  0  0  0  0  0  0  0  0  0  0
   21.3860  -37.2160  -16.8980 N   0  0  0  0  0  0  0  0  0  0  0  0
   21.7080  -37.1490  -15.6030 C   0  0  0  0  0  0  0  0  0  0  0  0
   22.0840  -38.3460  -14.7860 C   0  0  0  0  0  1  0  0  0  0  0  0
   21.6850  -35.8880  -15.1200 N   0  0  0  0  0  0  0  0  0  0  0  0
   21.9200  -35.3910  -13.8260 C   0  0  0  0  0  0  0  0  0  0  0  0
   21.3740  -36.1330  -12.3580 S   0  0  0  0  0  0  0  0  0  0  0  0
   21.9850  -34.8070  -11.4120 C   0  0  0  0  0  0  0  0  0  0  0  0
   21.8210  -34.8300   -9.9260 C   0  0  0  0  0  1  0  0  0  0  0  0
   22.5610  -33.8300  -12.1960 C   0  0  0  0  0  0  0  0  0  0  0  0
   23.1050  -32.5470  -11.6220 C   0  0  0  0  0  1  0  0  0  0  0  0
   22.5550  -34.1900  -13.5910 C   0  0  0  0  0  0  0  0  0  0  0  0
   23.1840  -33.3510  -14.6660 C   0  0  0  0  0  0  0  0  0  0  0  0
   24.5220  -32.7730  -14.4080 C   0  0  0  0  0  0  0  0  0  0  0  0
   25.5270  -33.5570  -13.7980 C   0  0  0  0  0  3  0  0  0  0  0  0
   26.7910  -33.0000  -13.5200 C   0  0  0  0  0  3  0  0  0  0  0  0
   27.0550  -31.6610  -13.8550 C   0  0  0  0  0  0  0  0  0  0  0  0
   28.5930  -30.9600  -13.5190 Cl  0  0  0  0  0  0  0  0  0  0  0  0
   26.0580  -30.8860  -14.4670 C   0  0  0  0  0  3  0  0  0  0  0  0
   24.7930  -31.4320  -14.7490 C   0  0  0  0  0  3  0  0  0  0  0  0
   25.6420  -27.5370  -16.3070 C   0  0  0  0  0  3  0  0  0  0  0  0
   25.9670  -27.2560  -15.0860 N   0  0  0  0  0  0  0  0  0  0  0  0
   25.9360  -24.6030  -15.4290 N   0  0  0  0  0  0  0  0  0  0  0  0
   26.8330  -25.1110  -14.5880 C   0  0  0  0  0  0  0  0  0  0  0  0
   27.3130  -24.4960  -13.6360 O   0  0  0  0  0  0  0  0  0  0  0  0
   27.0270  -26.4220  -14.8220 N   0  0  0  0  0  0  0  0  0  0  0  0
   25.6850  -25.2140  -16.1840 H   0  0  0  0  0  0  0  0  0  0  0  0
   27.7090  -26.8310  -14.1930 H   0  0  0  0  0  0  0  0  0  0  0  0
   24.9820  -23.5320  -15.1900 C   0  0  0  0  0  3  0  0  0  0  0  0
   21.9110  -23.9320  -12.7550 C   0  0  0  0  0  3  0  0  0  0  0  0
   21.4620  -22.7330  -11.9080 C   0  0  0  0  0  2  0  0  0  0  0  0
   22.7270  -21.9310  -11.6920 C   0  0  0  0  0  3  0  0  0  0  0  0
   23.5770  -22.1940  -12.9340 C   0  0  0  0  0  2  0  0  0  0  0  0
   23.0930  -23.4570  -13.5030 N   0  0  0  0  0  0  0  0  0  0  0  0
   23.7410  -24.1530  -14.4700 C   0  0  0  0  0  0  0  0  0  0  0  0
   23.3990  -25.3050  -14.7760 O   0  0  0  0  0  0  0  0  0  0  0  0
   19.9410  -25.3420  -13.0430 N   0  0  0  0  0  0  0  0  0  0  0  0
   20.7240  -24.4150  -13.6070 C   0  0  0  0  0  0  0  0  0  0  0  0
   20.5010  -23.9250  -14.7150 O   0  0  0  0  0  0  0  0  0  0  0  0
   20.2080  -25.6980  -12.1350 H   0  0  0  0  0  0  0  0  0  0  0  0
   18.6660  -25.8060  -13.5750 C   0  0  0  0  0  2  0  0  0  0  0  0
   15.3460  -23.1750  -12.6030 C   0  0  0  0  0  0  0  0  0  0  0  0
   16.3870  -23.3770  -11.6730 C   0  0  0  0  0  3  0  0  0  0  0  0
   17.4630  -24.2230  -11.9860 C   0  0  0  0  0  3  0  0  0  0  0  0
   15.3950  -23.8260  -13.8540 C   0  0  0  0  0  3  0  0  0  0  0  0
   16.4730  -24.6750  -14.1680 C   0  0  0  0  0  3  0  0  0  0  0  0
   17.5110  -24.8790  -13.2350 C   0  0  0  0  0  0  0  0  0  0  0  0
   12.2100  -23.6460  -13.1930 C   0  0  0  0  0  1  0  0  0  0  0  0
   12.8860  -22.4970  -12.4710 C   0  0  0  0  0  0  0  0  0  0  0  0
   12.0850  -21.5190  -11.9190 N   0  0  0  0  0  0  0  0  0  0  0  0
   12.7400  -20.5590  -11.0370 C   0  0  0  0  0  2  0  0  0  0  0  0
   14.5030  -20.8500  -11.3490 S   0  0  0  0  0  0  0  0  0  0  0  0
   14.1930  -22.3450  -12.2180 C   0  0  0  0  0  0  0  0  0  0  0  0
   11.0700  -21.5600  -11.9290 H   0  0  0  0  0  0  0  0  0  0  0  0
   23.4190  -22.4020  -10.5480 O   0  0  0  0  0  0  0  0  0  0  0  0
   23.6240  -23.3230  -10.6770 H   0  0  0  0  0  0  0  0  0  0  0  0
   24.6510  -22.9020  -16.5890 C   0  0  1  0  0  0  0  0  0  0  0  0
   25.9290  -22.2210  -17.1340 C   0  0  0  0  0  1  0  0  0  0  0  0
   24.1710  -23.9350  -17.6380 C   0  0  0  0  0  1  0  0  0  0  0  0
   23.5690  -21.8080  -16.4700 C   0  0  0  0  0  1  0  0  0  0  0  0
   22.0200  -28.1480  -16.1280 O   0  0  0  0  0  0  0  0  0  0  0  0
   19.8350  -27.1770  -16.5680 C   0  0  0  0  0  1  0  0  0  0  0  0
   21.1940  -27.0180  -15.8880 C   0  0  0  0  0  2  0  0  0  0  0  0
  1 39  1  0
  1  3  1  0
  2  1  1  0
  3  5  1  0
  4  2  1  0
  6  7  1  0
  7  2  1  0
  7  9  1  0
  8  6  2  0
 10  6  1  0
 10 13  1  0
 11 15  1  0
 11 12  2  0
 13 11  1  0
 14 13  1  0
 16 15  1  0
 16 17  1  0
 17 31  2  0
 18 16  1  0
 18 23  1  0
 19 20  1  0
 19 18  2  0
 20 21  2  0
 21 23  1  0
 21 22  1  0
 23 24  1  0
 24 30  2  0
 24 25  1  0
 25 26  1  0
 26 27  1  0
 28 29  1  0
 28 26  2  0
 30 28  1  0
 31 32  1  0
 31 30  1  0
 32 33  1  0
 33 34  2  0
 35 34  1  0
 35 36  1  0
 37 35  2  0
 38 37  1  0
 38 32  2  0
 39 40  2  0
 40 44  1  0
 41 47  1  0
 41 42  1  0
 42 43  2  0
 44 42  1  0
 44 46  1  0
 45 41  1  0
 47 53  1  0
 48 56  1  0
 48 49  1  0
 49 50  1  0
 50 73  1  0
 51 50  1  0
 52 51  1  0
 52 48  1  0
 53 52  1  0
 54 53  2  0
 55 58  1  0
 56 55  1  0
 57 56  2  0
 59 65  1  0
 59 55  1  0
 60 71  1  0
 60 61  1  0
 62 61  2  0
 63 60  2  0
 64 63  1  0
 64 65  2  0
 65 62  1  0
 66 67  1  0
 67 71  2  0
 67 68  1  0
 68 69  1  0
 70 69  1  0
 71 70  1  0
 72 68  1  0
 74 73  1  0
 75 78  1  1
 75 47  1  0
 76 75  1  0
 77 75  1  0
 79 81  1  0
 79  3  1  0
 80 81  1  0
M  ISO  4  11 100  13 100  42 101  44 101
M  END
>  <TORSDO>  (70) 
F 18

>  <SCORE>  (70) 
-12.993

>  <name>  (70) 
69

>  <ligand_id>  (70) 
69

>  <original_smiles>  (70) 
[H]OC1([H])C([H])([H])N(C(=O)C([H])(N([H])C(=O)N([H])N=C([H])C(N([H])N([H])C(=O)C([H])([H])N([H])C(=O)C([H])([H])C2([H])N=C(c3c([H])c([H])c(Cl)c([H])c3[H])c3c(sc(C([H])([H])[H])c3C([H])([H])[H])-n3c(C([H])([H])[H])nnc32)=[N+]([H])OC([H])([H])C([H])([H])[H])C(C([H])([H])[H])(C([H])([H])[H])C([H])([H])[H])C([H])(C(=O)N([H])C([H])([H])c2c([H])c([H])c(C3=C(C([H])([H])[H])N([H])C([H])([H])S3)c([H])c2[H])C1([H])[H]

>  <smiles>  (70) 
[H]OC1([H])C([H])([H])N(C(=O)C([H])(N([H])C(=O)N([H])N=C([H])C(N([H])N([H])C(=O)C([H])([H])N([H])C(=O)C([H])([H])C2([H])N=C(c3c([H])c([H])c(Cl)c([H])c3[H])c3c(sc(C([H])([H])[H])c3C([H])([H])[H])-n3c(C([H])([H])[H])nnc32)=[N+]([H])OC([H])([H])C([H])([H])[H])C(C([H])([H])[H])(C([H])([H])[H])C([H])([H])[H])C([H])(C(=O)N([H])C([H])([H])c2c([H])c([H])c(C3=C(C([H])([H])[H])N([H])C([H])([H])S3)c([H])c2[H])C1([H])[H]

$$$$
70:0:0
     RDKit          3D

 78 84  0  0  1  0  0  0  0  0999 V2000
   25.6750  -24.8640  -15.5150 N   0  0  0  0  0  0  0  0  0  0  0  0
   26.4950  -25.6160  -14.7990 C   0  0  0  0  0  0  0  0  0  0  0  0
   27.1880  -25.1410  -13.8800 O   0  0  0  0  0  0  0  0  0  0  0  0
   26.1190  -27.5080  -16.3680 C   0  0  0  0  0  0  0  0  0  0  0  0
   25.1240  -28.1010  -16.9920 N   0  0  0  0  0  2  0  0  0  0  0  0
   27.2930  -27.3570  -17.0730 N   0  0  0  0  0  4  0  0  0  0  0  0
   26.2440  -26.9440  -15.0650 N   0  0  0  0  0  0  0  0  0  0  0  0
   25.2530  -25.3260  -16.3040 H   0  0  0  0  0  0  0  0  0  0  0  0
   27.4230  -27.7060  -18.0150 H   0  0  0  0  0  0  0  0  0  0  0  0
   28.1640  -26.9930  -16.7050 H   0  0  0  0  0  0  0  0  0  0  0  0
   26.6350  -27.5520  -14.3570 H   0  0  0  0  0  0  0  0  0  0  0  0
   23.8840  -28.6030  -16.4350 N   0  0  0  0  0  4  0  0  0  0  0  0
   23.1960  -27.8630  -16.4590 H   0  0  0  0  0  0  0  0  0  0  0  0
   24.0440  -28.9430  -15.4990 H   0  0  0  0  0  0  0  0  0  0  0  0
   20.1840  -31.0270  -16.2110 C   0  0  0  0  0  0  0  0  0  0  0  0
   19.4380  -30.6420  -15.3160 O   0  0  0  0  0  0  0  0  0  0  0  0
   22.3330  -30.3340  -17.4080 C   0  0  0  0  0  0  0  0  0  0  0  0
   23.4850  -29.6790  -17.3290 N   0  0  0  0  0  0  0  0  0  0  0  0
   21.2230  -30.1700  -16.5370 N   0  0  0  0  0  0  0  0  0  0  0  0
   21.1570  -29.3040  -16.0310 H   0  0  0  0  0  0  0  0  0  0  0  0
   22.1000  -31.2710  -18.4220 N   0  0  0  0  0  2  0  0  0  0  0  0
   23.0740  -31.4830  -19.1180 O   0  0  0  0  0  1  0  0  0  0  0  0
   19.9820  -32.5170  -16.6690 C   0  0  0  0  0  2  0  0  0  0  0  0
   20.5450  -33.4820  -15.5850 C   0  0  0  0  0  3  0  0  0  0  0  0
   21.9030  -33.0290  -15.3110 N   0  0  0  0  0  0  0  0  0  0  0  0
   20.5670  -34.9810  -15.8820 C   0  0  0  0  0  0  0  0  0  0  0  0
   20.2570  -35.5840  -17.0360 N   0  0  0  0  0  0  0  0  0  0  0  0
   20.5410  -36.9270  -16.8480 N   0  0  0  0  0  0  0  0  0  0  0  0
   21.0080  -37.0300  -15.5990 C   0  0  0  0  0  0  0  0  0  0  0  0
   21.5040  -38.3160  -15.0060 C   0  0  0  0  0  1  0  0  0  0  0  0
   21.0110  -35.8490  -14.9440 N   0  0  0  0  0  0  0  0  0  0  0  0
   21.3800  -35.5410  -13.6170 C   0  0  0  0  0  0  0  0  0  0  0  0
   21.0220  -36.5060  -12.2190 S   0  0  0  0  0  0  0  0  0  0  0  0
   21.7080  -35.3060  -11.1590 C   0  0  0  0  0  0  0  0  0  0  0  0
   21.7140  -35.5420   -9.6820 C   0  0  0  0  0  1  0  0  0  0  0  0
   22.1730  -34.2090  -11.8500 C   0  0  0  0  0  0  0  0  0  0  0  0
   22.7460  -32.9960  -11.1610 C   0  0  0  0  0  1  0  0  0  0  0  0
   22.0240  -34.3750  -13.2710 C   0  0  0  0  0  0  0  0  0  0  0  0
   22.5350  -33.3870  -14.2660 C   0  0  0  0  0  0  0  0  0  0  0  0
   23.8660  -32.7870  -14.0670 C   0  0  0  0  0  0  0  0  0  0  0  0
   24.9710  -33.6020  -13.7510 C   0  0  0  0  0  3  0  0  0  0  0  0
   26.2360  -33.0190  -13.5460 C   0  0  0  0  0  3  0  0  0  0  0  0
   26.3980  -31.6280  -13.6690 C   0  0  0  0  0  0  0  0  0  0  0  0
   27.9440  -30.9080  -13.4200 Cl  0  0  0  0  0  0  0  0  0  0  0  0
   25.2980  -30.8150  -13.9810 C   0  0  0  0  0  3  0  0  0  0  0  0
   24.0290  -31.3930  -14.1680 C   0  0  0  0  0  3  0  0  0  0  0  0
   24.8950  -23.7190  -15.0840 C   0  0  0  0  0  3  0  0  0  0  0  0
   21.7360  -23.8840  -12.7340 C   0  0  0  0  0  3  0  0  0  0  0  0
   21.2850  -22.6240  -11.9780 C   0  0  0  0  0  2  0  0  0  0  0  0
   22.5630  -21.8380  -11.7630 C   0  0  0  0  0  3  0  0  0  0  0  0
   23.4520  -22.2000  -12.9530 C   0  0  0  0  0  2  0  0  0  0  0  0
   22.9590  -23.4860  -13.4620 N   0  0  0  0  0  0  0  0  0  0  0  0
   23.6100  -24.2550  -14.3710 C   0  0  0  0  0  0  0  0  0  0  0  0
   23.2360  -25.4060  -14.6330 O   0  0  0  0  0  0  0  0  0  0  0  0
   19.7800  -25.3100  -13.0380 N   0  0  0  0  0  0  0  0  0  0  0  0
   20.5760  -24.3960  -13.6040 C   0  0  0  0  0  0  0  0  0  0  0  0
   20.3760  -23.9310  -14.7280 O   0  0  0  0  0  0  0  0  0  0  0  0
   20.0250  -25.6460  -12.1170 H   0  0  0  0  0  0  0  0  0  0  0  0
   18.5200  -25.7850  -13.5950 C   0  0  0  0  0  2  0  0  0  0  0  0
   15.1460  -23.2100  -12.6310 C   0  0  0  0  0  0  0  0  0  0  0  0
   16.1730  -23.4140  -11.6860 C   0  0  0  0  0  3  0  0  0  0  0  0
   17.2660  -24.2430  -11.9950 C   0  0  0  0  0  3  0  0  0  0  0  0
   15.2270  -23.8390  -13.8910 C   0  0  0  0  0  3  0  0  0  0  0  0
   16.3220  -24.6690  -14.2000 C   0  0  0  0  0  3  0  0  0  0  0  0
   17.3470  -24.8760  -13.2540 C   0  0  0  0  0  0  0  0  0  0  0  0
   12.0310  -23.6920  -13.3220 C   0  0  0  0  0  1  0  0  0  0  0  0
   12.6750  -22.5580  -12.5490 C   0  0  0  0  0  0  0  0  0  0  0  0
   11.8480  -21.6030  -11.9950 N   0  0  0  0  0  0  0  0  0  0  0  0
   12.4690  -20.6600  -11.0720 C   0  0  0  0  0  2  0  0  0  0  0  0
   14.2430  -20.9270  -11.3380 S   0  0  0  0  0  0  0  0  0  0  0  0
   13.9730  -22.4010  -12.2550 C   0  0  0  0  0  0  0  0  0  0  0  0
   10.8340  -21.6550  -12.0350 H   0  0  0  0  0  0  0  0  0  0  0  0
   23.1990  -22.2520  -10.5650 O   0  0  0  0  0  0  0  0  0  0  0  0
   23.3880  -23.1830  -10.6290 H   0  0  0  0  0  0  0  0  0  0  0  0
   24.6110  -22.9050  -16.3960 C   0  0  1  0  0  0  0  0  0  0  0  0
   25.9470  -22.3280  -16.9230 C   0  0  0  0  0  1  0  0  0  0  0  0
   23.9840  -23.7660  -17.5240 C   0  0  0  0  0  1  0  0  0  0  0  0
   23.6710  -21.7120  -16.1340 C   0  0  0  0  0  1  0  0  0  0  0  0
  1 47  1  0
  1  2  1  0
  2  3  2  0
  4  7  1  0
  5 12  1  0
  5  4  1  0
  6 10  1  0
  6  4  2  0
  7  2  1  0
  7 11  1  0
  8  1  1  0
  9  6  1  0
 12 14  1  0
 13 12  1  0
 15 16  2  0
 17 18  2  0
 17 19  1  0
 18 12  1  0
 19 15  1  0
 19 20  1  0
 21 17  1  0
 22 21  1  0
 23 15  1  0
 24 23  1  0
 24 25  1  0
 25 39  2  0
 26 24  1  0
 26 31  1  0
 27 28  1  0
 27 26  2  0
 28 29  2  0
 29 30  1  0
 29 31  1  0
 31 32  1  0
 32 38  2  0
 32 33  1  0
 33 34  1  0
 34 35  1  0
 36 37  1  0
 36 34  2  0
 38 36  1  0
 39 40  1  0
 39 38  1  0
 40 41  1  0
 41 42  2  0
 43 42  1  0
 43 44  1  0
 45 43  2  0
 46 40  2  0
 46 45  1  0
 47 53  1  0
 48 56  1  0
 48 49  1  0
 49 50  1  0
 50 73  1  0
 51 50  1  0
 52 51  1  0
 52 48  1  0
 53 52  1  0
 54 53  2  0
 55 58  1  0
 56 55  1  0
 57 56  2  0
 59 65  1  0
 59 55  1  0
 60 71  1  0
 60 61  1  0
 62 61  2  0
 63 60  2  0
 64 63  1  0
 64 65  2  0
 65 62  1  0
 66 67  1  0
 67 71  2  0
 67 68  1  0
 68 69  1  0
 70 69  1  0
 71 70  1  0
 72 68  1  0
 74 73  1  0
 75 78  1  1
 75 47  1  0
 76 75  1  0
 77 75  1  0
M  ISO  4   2 101   7 101  15 100  19 100
M  END
>  <TORSDO>  (71) 
F 14

>  <SCORE>  (71) 
-10.221

>  <name>  (71) 
70

>  <ligand_id>  (71) 
70

>  <original_smiles>  (71) 
[H]OC1([H])C([H])([H])N(C(=O)C([H])(N([H])C(=O)N([H])C(=N[N+]([H])([H])N=C(N=O)N([H])C(=O)C([H])([H])C2([H])N=C(c3c([H])c([H])c(Cl)c([H])c3[H])c3c(sc(C([H])([H])[H])c3C([H])([H])[H])-n3c(C([H])([H])[H])nnc32)N([H])[H])C(C([H])([H])[H])(C([H])([H])[H])C([H])([H])[H])C([H])(C(=O)N([H])C([H])([H])c2c([H])c([H])c(C3=C(C([H])([H])[H])N([H])C([H])([H])S3)c([H])c2[H])C1([H])[H]

>  <smiles>  (71) 
[H]OC1([H])C([H])([H])N(C(=O)C([H])(N([H])C(=O)N([H])C(=N[N+]([H])([H])N=C(N=O)N([H])C(=O)C([H])([H])C2([H])N=C(c3c([H])c([H])c(Cl)c([H])c3[H])c3c(sc(C([H])([H])[H])c3C([H])([H])[H])-n3c(C([H])([H])[H])nnc32)N([H])[H])C(C([H])([H])[H])(C([H])([H])[H])C([H])([H])[H])C([H])(C(=O)N([H])C([H])([H])c2c([H])c([H])c(C3=C(C([H])([H])[H])N([H])C([H])([H])S3)c([H])c2[H])C1([H])[H]

$$$$
71:0:0
     RDKit          3D

 75 82  0  0  1  0  0  0  0  0999 V2000
   25.8520  -24.3860  -15.2500 N   0  0  0  0  0  0  0  0  0  0  0  0
   26.7330  -24.8750  -14.3960 C   0  0  0  0  0  0  0  0  0  0  0  0
   27.3090  -24.1830  -13.5460 O   0  0  0  0  0  0  0  0  0  0  0  0
   26.8630  -26.2040  -14.5920 N   0  0  0  0  0  0  0  0  0  0  0  0
   25.5960  -25.0140  -15.9940 H   0  0  0  0  0  0  0  0  0  0  0  0
   27.6130  -26.6600  -14.0910 H   0  0  0  0  0  0  0  0  0  0  0  0
   24.8540  -23.3550  -15.0400 C   0  0  0  0  0  3  0  0  0  0  0  0
   21.6350  -23.8110  -12.8150 C   0  0  0  0  0  3  0  0  0  0  0  0
   21.0480  -22.5970  -12.0770 C   0  0  0  0  0  2  0  0  0  0  0  0
   22.2420  -21.7040  -11.8150 C   0  0  0  0  0  3  0  0  0  0  0  0
   23.2040  -21.9800  -12.9700 C   0  0  0  0  0  2  0  0  0  0  0  0
   22.8430  -23.3010  -13.4950 N   0  0  0  0  0  0  0  0  0  0  0  0
   23.5950  -24.0070  -14.3760 C   0  0  0  0  0  0  0  0  0  0  0  0
   23.3260  -25.1830  -14.6440 O   0  0  0  0  0  0  0  0  0  0  0  0
   19.8030  -25.3810  -13.1820 N   0  0  0  0  0  0  0  0  0  0  0  0
   20.5550  -24.4190  -13.7270 C   0  0  0  0  0  0  0  0  0  0  0  0
   20.3720  -23.9840  -14.8670 O   0  0  0  0  0  0  0  0  0  0  0  0
   20.0330  -25.6890  -12.2480 H   0  0  0  0  0  0  0  0  0  0  0  0
   18.6070  -25.9560  -13.7860 C   0  0  0  0  0  2  0  0  0  0  0  0
   15.0010  -23.6670  -12.9440 C   0  0  0  0  0  0  0  0  0  0  0  0
   15.9880  -23.8240  -11.9490 C   0  0  0  0  0  3  0  0  0  0  0  0
   17.1550  -24.5600  -12.2190 C   0  0  0  0  0  3  0  0  0  0  0  0
   15.1960  -24.2490  -14.2140 C   0  0  0  0  0  3  0  0  0  0  0  0
   16.3660  -24.9860  -14.4830 C   0  0  0  0  0  3  0  0  0  0  0  0
   17.3520  -25.1470  -13.4880 C   0  0  0  0  0  0  0  0  0  0  0  0
   11.9810  -24.3130  -13.8780 C   0  0  0  0  0  1  0  0  0  0  0  0
   12.4910  -23.1830  -13.0060 C   0  0  0  0  0  0  0  0  0  0  0  0
   11.5650  -22.3140  -12.4660 N   0  0  0  0  0  0  0  0  0  0  0  0
   12.0550  -21.3840  -11.4550 C   0  0  0  0  0  2  0  0  0  0  0  0
   13.8570  -21.5210  -11.6080 S   0  0  0  0  0  0  0  0  0  0  0  0
   13.7520  -22.9580  -12.6130 C   0  0  0  0  0  0  0  0  0  0  0  0
   10.5620  -22.4280  -12.5840 H   0  0  0  0  0  0  0  0  0  0  0  0
   22.8710  -22.0670  -10.5960 O   0  0  0  0  0  0  0  0  0  0  0  0
   23.1420  -22.9770  -10.6560 H   0  0  0  0  0  0  0  0  0  0  0  0
   24.5820  -22.7510  -16.4630 C   0  0  1  0  0  0  0  0  0  0  0  0
   25.8650  -22.0380  -16.9540 C   0  0  0  0  0  1  0  0  0  0  0  0
   24.1950  -23.8180  -17.5220 C   0  0  0  0  0  1  0  0  0  0  0  0
   23.4630  -21.6930  -16.4210 C   0  0  0  0  0  1  0  0  0  0  0  0
   25.7540  -27.1040  -15.0560 C   0  0  0  0  0  2  0  0  0  0  0  0
   25.9660  -29.3470  -17.8740 C   0  0  0  0  0  3  0  0  0  0  0  0
   26.0940  -27.9600  -16.2600 C   0  0  0  0  0  0  0  0  0  0  0  0
   23.7710  -28.8930  -16.8150 C   0  0  0  0  0  0  0  0  0  0  0  0
   27.2580  -29.0050  -17.7970 N   0  0  0  0  0  0  0  0  0  0  0  0
   27.3410  -28.1000  -16.7450 N   0  0  0  0  0  0  0  0  0  0  0  0
   25.2100  -28.7240  -16.9630 N   0  0  0  0  0  0  0  0  0  0  0  0
   23.1870  -28.1680  -16.0030 O   0  0  0  0  0  0  0  0  0  0  0  0
   22.9810  -29.9680  -17.6140 C   0  0  0  0  0  2  0  0  0  0  0  0
   20.7590  -30.8580  -16.7490 C   0  0  0  0  0  0  0  0  0  0  0  0
   20.0000  -30.5290  -15.8430 O   0  0  0  0  0  0  0  0  0  0  0  0
   21.5450  -29.9030  -17.2840 N   0  0  0  0  0  0  0  0  0  0  0  0
   21.2900  -28.9720  -16.9770 H   0  0  0  0  0  0  0  0  0  0  0  0
   20.8340  -32.3440  -17.1680 C   0  0  0  0  0  2  0  0  0  0  0  0
   21.2690  -33.2440  -15.9770 C   0  0  0  0  0  3  0  0  0  0  0  0
   22.6300  -32.8510  -15.6210 N   0  0  0  0  0  0  0  0  0  0  0  0
   21.2190  -34.7470  -16.2190 C   0  0  0  0  0  0  0  0  0  0  0  0
   20.9340  -35.3680  -17.3690 N   0  0  0  0  0  0  0  0  0  0  0  0
   21.1070  -36.7190  -17.1220 N   0  0  0  0  0  0  0  0  0  0  0  0
   21.4860  -36.8090  -15.8420 C   0  0  0  0  0  0  0  0  0  0  0  0
   21.8440  -38.1050  -15.1790 C   0  0  0  0  0  1  0  0  0  0  0  0
   21.5380  -35.6070  -15.2270 N   0  0  0  0  0  0  0  0  0  0  0  0
   21.8410  -35.2770  -13.8900 C   0  0  0  0  0  0  0  0  0  0  0  0
   21.3260  -36.1640  -12.4900 S   0  0  0  0  0  0  0  0  0  0  0  0
   22.0310  -34.9800  -11.4240 C   0  0  0  0  0  0  0  0  0  0  0  0
   21.9270  -35.1670   -9.9440 C   0  0  0  0  0  1  0  0  0  0  0  0
   22.6160  -33.9430  -12.1170 C   0  0  0  0  0  0  0  0  0  0  0  0
   23.2360  -32.7540  -11.4270 C   0  0  0  0  0  1  0  0  0  0  0  0
   22.5420  -34.1430  -13.5400 C   0  0  0  0  0  0  0  0  0  0  0  0
   23.1780  -33.2220  -14.5310 C   0  0  0  0  0  0  0  0  0  0  0  0
   24.5400  -32.7230  -14.2650 C   0  0  0  0  0  0  0  0  0  0  0  0
   25.5500  -33.6140  -13.8440 C   0  0  0  0  0  3  0  0  0  0  0  0
   26.8440  -33.1320  -13.5700 C   0  0  0  0  0  3  0  0  0  0  0  0
   27.1320  -31.7650  -13.7190 C   0  0  0  0  0  0  0  0  0  0  0  0
   28.7090  -31.1570  -13.3880 Cl  0  0  0  0  0  0  0  0  0  0  0  0
   26.1240  -30.8810  -14.1240 C   0  0  0  0  0  3  0  0  0  0  0  0
   24.8270  -31.3510  -14.4000 C   0  0  0  0  0  3  0  0  0  0  0  0
  1  7  1  0
  1  2  1  0
  2  3  2  0
  4  2  1  0
  4  6  1  0
  5  1  1  0
  7 13  1  0
  8 16  1  0
  8  9  1  0
  9 10  1  0
 10 33  1  0
 11 10  1  0
 12 11  1  0
 12  8  1  0
 13 12  1  0
 14 13  2  0
 15 18  1  0
 16 15  1  0
 17 16  2  0
 19 25  1  0
 19 15  1  0
 20 31  1  0
 20 21  1  0
 22 21  2  0
 23 20  2  0
 24 23  1  0
 24 25  2  0
 25 22  1  0
 26 27  1  0
 27 31  2  0
 27 28  1  0
 28 29  1  0
 30 29  1  0
 31 30  1  0
 32 28  1  0
 34 33  1  0
 35 38  1  1
 35  7  1  0
 36 35  1  0
 37 35  1  0
 39  4  1  0
 40 43  2  0
 40 45  1  0
 41 39  1  0
 42 46  2  0
 43 44  1  0
 44 41  2  0
 45 42  1  0
 45 41  1  0
 47 50  1  0
 47 42  1  0
 48 49  2  0
 50 51  1  0
 50 48  1  0
 52 48  1  0
 53 52  1  0
 53 54  1  0
 54 68  2  0
 55 53  1  0
 55 60  1  0
 56 57  1  0
 56 55  2  0
 57 58  2  0
 58 60  1  0
 58 59  1  0
 60 61  1  0
 61 67  2  0
 61 62  1  0
 62 63  1  0
 63 64  1  0
 65 66  1  0
 65 63  2  0
 67 65  1  0
 68 69  1  0
 68 67  1  0
 69 70  1  0
 70 71  2  0
 72 71  1  0
 72 73  1  0
 74 72  2  0
 75 69  2  0
 75 74  1  0
M  ISO  4   2 101   4 101  48 100  50 100
M  END
>  <TORSDO>  (72) 
F 15

>  <SCORE>  (72) 
-12.412

>  <name>  (72) 
71

>  <ligand_id>  (72) 
71

>  <original_smiles>  (72) 
[H]OC1([H])C([H])([H])N(C(=O)C([H])(N([H])C(=O)N([H])C([H])([H])c2nnc([H])n2C(=O)C([H])([H])N([H])C(=O)C([H])([H])C2([H])N=C(c3c([H])c([H])c(Cl)c([H])c3[H])c3c(sc(C([H])([H])[H])c3C([H])([H])[H])-n3c(C([H])([H])[H])nnc32)C(C([H])([H])[H])(C([H])([H])[H])C([H])([H])[H])C([H])(C(=O)N([H])C([H])([H])c2c([H])c([H])c(C3=C(C([H])([H])[H])N([H])C([H])([H])S3)c([H])c2[H])C1([H])[H]

>  <smiles>  (72) 
[H]OC1([H])C([H])([H])N(C(=O)C([H])(N([H])C(=O)N([H])C([H])([H])c2nnc([H])n2C(=O)C([H])([H])N([H])C(=O)C([H])([H])C2([H])N=C(c3c([H])c([H])c(Cl)c([H])c3[H])c3c(sc(C([H])([H])[H])c3C([H])([H])[H])-n3c(C([H])([H])[H])nnc32)C(C([H])([H])[H])(C([H])([H])[H])C([H])([H])[H])C([H])(C(=O)N([H])C([H])([H])c2c([H])c([H])c(C3=C(C([H])([H])[H])N([H])C([H])([H])S3)c([H])c2[H])C1([H])[H]

$$$$
72:0:0
     RDKit          3D

 77 85  0  0  1  0  0  0  0  0999 V2000
   22.9910  -31.3680  -18.7920 C   0  0  0  0  0  2  0  0  0  0  0  0
   24.2380  -30.8840  -19.5270 C   0  0  0  0  0  2  0  0  0  0  0  0
   23.0990  -27.8340  -15.3840 C   0  0  0  0  0  2  0  0  0  0  0  0
   26.3500  -27.7410  -17.0430 C   0  0  0  0  0  2  0  0  0  0  0  0
   23.3920  -29.5100  -17.1090 C   0  0  0  0  0  3  0  0  0  0  0  0
   22.3520  -30.1850  -18.0530 C   0  0  0  0  0  3  0  0  0  0  0  0
   24.7430  -29.2630  -17.8610 C   0  0  0  0  0  3  0  0  0  0  0  0
   25.0590  -26.4670  -15.5290 C   0  0  0  0  0  3  0  0  0  0  0  0
   25.1540  -30.4050  -18.5520 O   0  0  0  0  0  0  0  0  0  0  0  0
   22.8980  -28.2250  -16.7160 O   0  0  0  0  0  0  0  0  0  0  0  0
   25.7160  -28.9800  -16.8990 O   0  0  0  0  0  0  0  0  0  0  0  0
   24.4430  -27.6150  -14.9930 O   0  0  0  0  0  0  0  0  0  0  0  0
   25.4850  -26.6590  -16.8510 O   0  0  0  0  0  0  0  0  0  0  0  0
   21.0600  -30.4980  -17.4730 O   0  0  0  0  0  0  0  0  0  0  0  0
   20.8190  -31.3070  -16.3900 C   0  0  0  0  0  0  0  0  0  0  0  0
   20.3750  -30.8640  -15.3300 O   0  0  0  0  0  0  0  0  0  0  0  0
   21.0180  -32.8270  -16.5660 C   0  0  0  0  0  2  0  0  0  0  0  0
   21.6620  -33.5030  -15.3230 C   0  0  0  0  0  3  0  0  0  0  0  0
   23.0060  -32.9610  -15.1160 N   0  0  0  0  0  0  0  0  0  0  0  0
   21.7220  -35.0220  -15.3920 C   0  0  0  0  0  0  0  0  0  0  0  0
   21.4280  -35.7880  -16.4500 N   0  0  0  0  0  0  0  0  0  0  0  0
   21.7190  -37.0850  -16.0680 N   0  0  0  0  0  0  0  0  0  0  0  0
   22.1740  -37.0010  -14.8130 C   0  0  0  0  0  0  0  0  0  0  0  0
   22.6670  -38.1840  -14.0340 C   0  0  0  0  0  1  0  0  0  0  0  0
   22.1660  -35.7360  -14.3370 N   0  0  0  0  0  0  0  0  0  0  0  0
   22.5190  -35.2310  -13.0710 C   0  0  0  0  0  0  0  0  0  0  0  0
   22.1530  -35.9840  -11.5500 S   0  0  0  0  0  0  0  0  0  0  0  0
   22.8240  -34.6380  -10.6720 C   0  0  0  0  0  0  0  0  0  0  0  0
   22.8180  -34.6580   -9.1770 C   0  0  0  0  0  1  0  0  0  0  0  0
   23.2870  -33.6490  -11.5130 C   0  0  0  0  0  0  0  0  0  0  0  0
   23.8530  -32.3480  -11.0010 C   0  0  0  0  0  1  0  0  0  0  0  0
   23.1480  -34.0170  -12.9000 C   0  0  0  0  0  0  0  0  0  0  0  0
   23.6520  -33.1710  -14.0280 C   0  0  0  0  0  0  0  0  0  0  0  0
   24.9920  -32.5600  -13.8950 C   0  0  0  0  0  0  0  0  0  0  0  0
   26.0980  -33.3360  -13.4920 C   0  0  0  0  0  3  0  0  0  0  0  0
   27.3670  -32.7390  -13.3510 C   0  0  0  0  0  3  0  0  0  0  0  0
   27.5370  -31.3700  -13.6270 C   0  0  0  0  0  0  0  0  0  0  0  0
   29.0800  -30.6230  -13.4720 Cl  0  0  0  0  0  0  0  0  0  0  0  0
   26.4350  -30.5940  -14.0030 C   0  0  0  0  0  3  0  0  0  0  0  0
   25.1650  -31.1830  -14.1200 C   0  0  0  0  0  3  0  0  0  0  0  0
   26.0770  -25.8820  -14.6710 O   0  0  0  0  0  0  0  0  0  0  0  0
   25.2830  -23.8290  -15.2830 N   0  0  0  0  0  0  0  0  0  0  0  0
   26.0840  -24.4800  -14.3930 C   0  0  0  0  0  0  0  0  0  0  0  0
   26.6500  -23.9070  -13.4500 O   0  0  0  0  0  0  0  0  0  0  0  0
   25.1220  -24.3310  -16.1420 H   0  0  0  0  0  0  0  0  0  0  0  0
   24.2470  -22.8570  -14.9930 C   0  0  0  0  0  3  0  0  0  0  0  0
   21.2920  -23.4790  -12.4540 C   0  0  0  0  0  3  0  0  0  0  0  0
   20.8360  -22.3390  -11.5310 C   0  0  0  0  0  2  0  0  0  0  0  0
   22.0830  -21.5070  -11.3170 C   0  0  0  0  0  3  0  0  0  0  0  0
   22.8980  -21.6760  -12.5990 C   0  0  0  0  0  2  0  0  0  0  0  0
   22.4340  -22.9230  -13.2120 N   0  0  0  0  0  0  0  0  0  0  0  0
   23.0590  -23.5450  -14.2390 C   0  0  0  0  0  0  0  0  0  0  0  0
   22.7260  -24.6820  -14.5780 O   0  0  0  0  0  0  0  0  0  0  0  0
   19.3240  -24.8980  -12.7270 N   0  0  0  0  0  0  0  0  0  0  0  0
   20.0960  -23.9630  -13.2920 C   0  0  0  0  0  0  0  0  0  0  0  0
   19.8490  -23.4600  -14.3900 O   0  0  0  0  0  0  0  0  0  0  0  0
   19.6090  -25.2700  -11.8300 H   0  0  0  0  0  0  0  0  0  0  0  0
   18.0410  -25.3540  -13.2470 C   0  0  0  0  0  2  0  0  0  0  0  0
   14.7510  -22.6750  -12.2710 C   0  0  0  0  0  0  0  0  0  0  0  0
   15.7510  -22.9480  -11.3140 C   0  0  0  0  0  3  0  0  0  0  0  0
   16.8150  -23.8100  -11.6270 C   0  0  0  0  0  3  0  0  0  0  0  0
   14.8310  -23.2720  -13.5470 C   0  0  0  0  0  3  0  0  0  0  0  0
   15.8990  -24.1350  -13.8590 C   0  0  0  0  0  3  0  0  0  0  0  0
   16.8960  -24.4100  -12.9020 C   0  0  0  0  0  0  0  0  0  0  0  0
   11.6550  -22.9290  -13.1460 C   0  0  0  0  0  1  0  0  0  0  0  0
   12.3170  -21.8920  -12.2610 C   0  0  0  0  0  0  0  0  0  0  0  0
   11.5150  -20.9320  -11.6790 N   0  0  0  0  0  0  0  0  0  0  0  0
   12.1340  -20.0950  -10.6590 C   0  0  0  0  0  2  0  0  0  0  0  0
   13.9030  -20.4430  -10.8580 S   0  0  0  0  0  0  0  0  0  0  0  0
   13.6040  -21.8300  -11.8930 C   0  0  0  0  0  0  0  0  0  0  0  0
   10.5030  -20.9210  -11.7740 H   0  0  0  0  0  0  0  0  0  0  0  0
   22.8330  -22.0140  -10.2250 O   0  0  0  0  0  0  0  0  0  0  0  0
   23.0610  -22.9200  -10.4100 H   0  0  0  0  0  0  0  0  0  0  0  0
   23.8740  -22.2630  -16.3930 C   0  0  1  0  0  0  0  0  0  0  0  0
   25.1140  -21.5400  -16.9750 C   0  0  0  0  0  1  0  0  0  0  0  0
   23.4250  -23.3420  -17.4150 C   0  0  0  0  0  1  0  0  0  0  0  0
   22.7480  -21.2190  -16.2740 C   0  0  0  0  0  1  0  0  0  0  0  0
  1  6  1  0
  2  1  1  0
  2  9  1  0
  3 12  1  0
  4 11  1  0
  4 13  1  0
  5 10  1  0
  6 14  1  0
  6  5  1  0
  7  9  1  0
  7  5  1  0
  7 11  1  0
  8 12  1  0
  8 41  1  0
 10  3  1  0
 13  8  1  0
 14 15  1  0
 15 16  2  0
 17 15  1  0
 18 17  1  0
 18 19  1  0
 19 33  2  0
 20 18  1  0
 20 25  1  0
 21 22  1  0
 21 20  2  0
 22 23  2  0
 23 25  1  0
 23 24  1  0
 25 26  1  0
 26 32  2  0
 26 27  1  0
 27 28  1  0
 28 29  1  0
 30 31  1  0
 30 28  2  0
 32 30  1  0
 33 34  1  0
 33 32  1  0
 34 35  1  0
 35 36  2  0
 37 38  1  0
 37 36  1  0
 39 37  2  0
 40 39  1  0
 40 34  2  0
 41 43  1  0
 42 46  1  0
 42 43  1  0
 43 44  2  0
 45 42  1  0
 46 52  1  0
 47 55  1  0
 47 48  1  0
 48 49  1  0
 49 72  1  0
 50 49  1  0
 51 50  1  0
 51 47  1  0
 52 51  1  0
 53 52  2  0
 54 57  1  0
 55 54  1  0
 56 55  2  0
 58 64  1  0
 58 54  1  0
 59 70  1  0
 59 60  1  0
 61 60  2  0
 62 59  2  0
 63 62  1  0
 63 64  2  0
 64 61  1  0
 65 66  1  0
 66 70  2  0
 66 67  1  0
 67 68  1  0
 69 68  1  0
 70 69  1  0
 71 67  1  0
 73 72  1  0
 74 77  1  1
 74 46  1  0
 75 74  1  0
 76 74  1  0
M  ISO  4  14 100  15 100  41 101  43 101
M  END
>  <TORSDO>  (73) 
F 15

>  <SCORE>  (73) 
9.165

>  <name>  (73) 
72

>  <ligand_id>  (73) 
72

>  <original_smiles>  (73) 
[H]OC1([H])C([H])([H])N(C(=O)C([H])(N([H])C(=O)OC2([H])OC([H])([H])OC3([H])OC([H])([H])C([H])([H])C([H])(OC(=O)C([H])([H])C4([H])N=C(c5c([H])c([H])c(Cl)c([H])c5[H])c5c(sc(C([H])([H])[H])c5C([H])([H])[H])-n5c(C([H])([H])[H])nnc54)C3([H])OC([H])([H])O2)C(C([H])([H])[H])(C([H])([H])[H])C([H])([H])[H])C([H])(C(=O)N([H])C([H])([H])c2c([H])c([H])c(C3=C(C([H])([H])[H])N([H])C([H])([H])S3)c([H])c2[H])C1([H])[H]

>  <smiles>  (73) 
[H]OC1([H])C([H])([H])N(C(=O)C([H])(N([H])C(=O)OC2([H])OC([H])([H])OC3([H])OC([H])([H])C([H])([H])C([H])(OC(=O)C([H])([H])C4([H])N=C(c5c([H])c([H])c(Cl)c([H])c5[H])c5c(sc(C([H])([H])[H])c5C([H])([H])[H])-n5c(C([H])([H])[H])nnc54)C3([H])OC([H])([H])O2)C(C([H])([H])[H])(C([H])([H])[H])C([H])([H])[H])C([H])(C(=O)N([H])C([H])([H])c2c([H])c([H])c(C3=C(C([H])([H])[H])N([H])C([H])([H])S3)c([H])c2[H])C1([H])[H]

$$$$
73:0:0
     RDKit          3D

 77 83  0  0  1  0  0  0  0  0999 V2000
   25.8640  -27.3200  -14.9300 N   0  0  0  0  0  0  0  0  0  0  0  0
   25.1810  -27.4150  -14.1780 H   0  0  0  0  0  0  0  0  0  0  0  0
   25.8590  -24.6950  -15.3450 N   0  0  0  0  0  0  0  0  0  0  0  0
   26.7900  -25.1540  -14.5140 C   0  0  0  0  0  0  0  0  0  0  0  0
   27.3490  -24.4780  -13.6510 O   0  0  0  0  0  0  0  0  0  0  0  0
   26.9600  -26.4770  -14.6410 N   0  0  0  0  0  0  0  0  0  0  0  0
   25.4970  -25.4130  -15.9550 H   0  0  0  0  0  0  0  0  0  0  0  0
   27.6760  -26.9140  -14.0740 H   0  0  0  0  0  0  0  0  0  0  0  0
   24.9510  -23.5790  -15.1240 C   0  0  0  0  0  3  0  0  0  0  0  0
   21.8100  -23.9400  -12.7830 C   0  0  0  0  0  3  0  0  0  0  0  0
   21.3440  -22.7360  -11.9490 C   0  0  0  0  0  2  0  0  0  0  0  0
   22.6080  -21.9410  -11.6990 C   0  0  0  0  0  3  0  0  0  0  0  0
   23.4930  -22.2130  -12.9140 C   0  0  0  0  0  2  0  0  0  0  0  0
   23.0180  -23.4740  -13.4950 N   0  0  0  0  0  0  0  0  0  0  0  0
   23.6760  -24.1760  -14.4510 C   0  0  0  0  0  0  0  0  0  0  0  0
   23.3170  -25.3150  -14.7740 O   0  0  0  0  0  0  0  0  0  0  0  0
   19.8590  -25.3580  -13.1450 N   0  0  0  0  0  0  0  0  0  0  0  0
   20.6510  -24.4200  -13.6740 C   0  0  0  0  0  0  0  0  0  0  0  0
   20.4490  -23.9100  -14.7770 O   0  0  0  0  0  0  0  0  0  0  0  0
   20.1070  -25.7340  -12.2390 H   0  0  0  0  0  0  0  0  0  0  0  0
   18.6000  -25.8140  -13.7180 C   0  0  0  0  0  2  0  0  0  0  0  0
   15.2280  -23.2630  -12.6840 C   0  0  0  0  0  0  0  0  0  0  0  0
   16.2570  -23.4920  -11.7470 C   0  0  0  0  0  3  0  0  0  0  0  0
   17.3480  -24.3130  -12.0790 C   0  0  0  0  0  3  0  0  0  0  0  0
   15.3060  -23.8610  -13.9590 C   0  0  0  0  0  3  0  0  0  0  0  0
   16.4000  -24.6830  -14.2910 C   0  0  0  0  0  3  0  0  0  0  0  0
   17.4270  -24.9140  -13.3530 C   0  0  0  0  0  0  0  0  0  0  0  0
   12.1090  -23.7420  -13.3600 C   0  0  0  0  0  1  0  0  0  0  0  0
   12.7560  -22.6190  -12.5730 C   0  0  0  0  0  0  0  0  0  0  0  0
   11.9310  -21.6750  -11.9970 N   0  0  0  0  0  0  0  0  0  0  0  0
   12.5560  -20.7470  -11.0620 C   0  0  0  0  0  2  0  0  0  0  0  0
   14.3280  -21.0060  -11.3460 S   0  0  0  0  0  0  0  0  0  0  0  0
   14.0560  -22.4650  -12.2850 C   0  0  0  0  0  0  0  0  0  0  0  0
   10.9170  -21.7270  -12.0340 H   0  0  0  0  0  0  0  0  0  0  0  0
   23.2650  -22.4150  -10.5340 O   0  0  0  0  0  0  0  0  0  0  0  0
   23.4700  -23.3360  -10.6570 H   0  0  0  0  0  0  0  0  0  0  0  0
   24.6690  -22.9030  -16.5150 C   0  0  1  0  0  0  0  0  0  0  0  0
   25.9720  -22.2380  -17.0130 C   0  0  0  0  0  1  0  0  0  0  0  0
   24.1920  -23.8990  -17.6020 C   0  0  0  0  0  1  0  0  0  0  0  0
   23.6100  -21.7860  -16.3930 C   0  0  0  0  0  1  0  0  0  0  0  0
   24.1440  -27.7410  -16.2000 N   0  0  0  0  0  2  0  0  0  0  0  0
   25.3560  -27.4580  -16.1890 N   0  0  0  0  0  2  0  0  0  0  0  0
   23.4960  -27.8080  -17.5300 C   0  0  0  0  0  2  0  0  0  0  0  0
   22.8620  -29.1560  -17.7350 C   0  0  0  0  0  0  0  0  0  0  0  0
   23.6570  -30.2410  -17.8350 N   0  0  0  0  0  4  0  0  0  0  0  0
   21.5130  -29.2550  -17.8140 N   0  0  0  0  0  0  0  0  0  0  0  0
   24.6620  -30.1360  -17.8070 H   0  0  0  0  0  0  0  0  0  0  0  0
   23.3000  -31.1830  -17.8290 H   0  0  0  0  0  0  0  0  0  0  0  0
   20.9050  -28.4580  -17.6730 H   0  0  0  0  0  0  0  0  0  0  0  0
   20.4500  -31.2000  -17.0760 C   0  0  0  0  0  0  0  0  0  0  0  0
   20.0640  -30.7040  -16.0110 O   0  0  0  0  0  0  0  0  0  0  0  0
   20.9130  -30.4780  -18.1060 N   0  0  0  0  0  0  0  0  0  0  0  0
   21.2950  -30.8320  -18.9720 H   0  0  0  0  0  0  0  0  0  0  0  0
   20.5150  -32.7220  -17.2510 C   0  0  0  0  0  2  0  0  0  0  0  0
   21.1400  -33.4500  -16.0340 C   0  0  0  0  0  3  0  0  0  0  0  0
   22.4690  -32.9020  -15.7460 N   0  0  0  0  0  0  0  0  0  0  0  0
   21.2340  -34.9550  -16.2110 C   0  0  0  0  0  0  0  0  0  0  0  0
   21.0070  -35.6450  -17.3350 N   0  0  0  0  0  0  0  0  0  0  0  0
   21.2980  -36.9610  -17.0320 N   0  0  0  0  0  0  0  0  0  0  0  0
   21.6890  -36.9610  -15.7540 C   0  0  0  0  0  0  0  0  0  0  0  0
   22.1570  -38.1900  -15.0360 C   0  0  0  0  0  1  0  0  0  0  0  0
   21.6430  -35.7350  -15.1910 N   0  0  0  0  0  0  0  0  0  0  0  0
   21.9310  -35.3110  -13.8790 C   0  0  0  0  0  0  0  0  0  0  0  0
   21.4990  -36.1680  -12.4350 S   0  0  0  0  0  0  0  0  0  0  0  0
   22.1100  -34.8800  -11.4360 C   0  0  0  0  0  0  0  0  0  0  0  0
   22.0320  -35.0040   -9.9480 C   0  0  0  0  0  1  0  0  0  0  0  0
   22.6030  -33.8320  -12.1850 C   0  0  0  0  0  0  0  0  0  0  0  0
   23.1290  -32.5670  -11.5550 C   0  0  0  0  0  1  0  0  0  0  0  0
   22.5330  -34.1030  -13.5990 C   0  0  0  0  0  0  0  0  0  0  0  0
   23.0720  -33.1750  -14.6470 C   0  0  0  0  0  0  0  0  0  0  0  0
   24.3960  -32.5540  -14.4210 C   0  0  0  0  0  0  0  0  0  0  0  0
   25.4640  -33.3300  -13.9160 C   0  0  0  0  0  3  0  0  0  0  0  0
   26.7170  -32.7360  -13.6710 C   0  0  0  0  0  3  0  0  0  0  0  0
   26.9090  -31.3690  -13.9410 C   0  0  0  0  0  0  0  0  0  0  0  0
   28.4360  -30.6280  -13.6430 Cl  0  0  0  0  0  0  0  0  0  0  0  0
   25.8530  -30.6030  -14.4580 C   0  0  0  0  0  3  0  0  0  0  0  0
   24.5950  -31.1850  -14.6930 C   0  0  0  0  0  3  0  0  0  0  0  0
  1  6  1  0
  1  2  1  0
  3  9  1  0
  3  4  1  0
  4  5  2  0
  6  4  1  0
  6  8  1  0
  7  3  1  0
  9 15  1  0
 10 18  1  0
 10 11  1  0
 11 12  1  0
 12 35  1  0
 13 12  1  0
 14 13  1  0
 14 10  1  0
 15 14  1  0
 16 15  2  0
 17 20  1  0
 18 17  1  0
 19 18  2  0
 21 27  1  0
 21 17  1  0
 22 33  1  0
 22 23  1  0
 24 23  2  0
 25 22  2  0
 26 25  1  0
 26 27  2  0
 27 24  1  0
 28 29  1  0
 29 33  2  0
 29 30  1  0
 30 31  1  0
 32 31  1  0
 33 32  1  0
 34 30  1  0
 36 35  1  0
 37 40  1  1
 37  9  1  0
 38 37  1  0
 39 37  1  0
 41 42  1  0
 42  1  1  0
 43 41  1  0
 44 43  1  0
 45 48  1  0
 45 47  1  0
 45 44  2  0
 46 44  1  0
 46 49  1  0
 50 51  2  0
 52 46  1  0
 52 50  1  0
 53 52  1  0
 54 50  1  0
 55 54  1  0
 55 56  1  0
 56 70  2  0
 57 55  1  0
 57 62  1  0
 58 59  1  0
 58 57  2  0
 59 60  2  0
 60 62  1  0
 60 61  1  0
 62 63  1  0
 63 69  2  0
 63 64  1  0
 64 65  1  0
 65 66  1  0
 67 68  1  0
 67 65  2  0
 69 67  1  0
 70 71  1  0
 70 69  1  0
 71 72  1  0
 72 73  2  0
 74 73  1  0
 74 75  1  0
 76 74  2  0
 77 76  1  0
 77 71  2  0
M  ISO  4   4 101   6 101  50 100  52 100
M  END
>  <TORSDO>  (74) 
F 16

>  <SCORE>  (74) 
-12.434

>  <name>  (74) 
73

>  <ligand_id>  (74) 
73

>  <original_smiles>  (74) 
[H]OC1([H])C([H])([H])N(C(=O)C([H])(N([H])C(=O)N([H])N([H])N=NC([H])([H])C(N([H])[H])=[N+]([H])N([H])C(=O)C([H])([H])C2([H])N=C(c3c([H])c([H])c(Cl)c([H])c3[H])c3c(sc(C([H])([H])[H])c3C([H])([H])[H])-n3c(C([H])([H])[H])nnc32)C(C([H])([H])[H])(C([H])([H])[H])C([H])([H])[H])C([H])(C(=O)N([H])C([H])([H])c2c([H])c([H])c(C3=C(C([H])([H])[H])N([H])C([H])([H])S3)c([H])c2[H])C1([H])[H]

>  <smiles>  (74) 
[H]OC1([H])C([H])([H])N(C(=O)C([H])(N([H])C(=O)N([H])N([H])N=NC([H])([H])C(N([H])[H])=[N+]([H])N([H])C(=O)C([H])([H])C2([H])N=C(c3c([H])c([H])c(Cl)c([H])c3[H])c3c(sc(C([H])([H])[H])c3C([H])([H])[H])-n3c(C([H])([H])[H])nnc32)C(C([H])([H])[H])(C([H])([H])[H])C([H])([H])[H])C([H])(C(=O)N([H])C([H])([H])c2c([H])c([H])c(C3=C(C([H])([H])[H])N([H])C([H])([H])S3)c([H])c2[H])C1([H])[H]

$$$$
74:0:0
     RDKit          3D

 76 83  0  0  1  0  0  0  0  0999 V2000
   23.9230  -28.2780  -17.5230 C   0  0  0  0  0  0  0  0  0  0  0  0
   24.3910  -27.0520  -16.8160 C   0  0  0  0  0  0  0  0  0  0  0  0
   24.6680  -29.4460  -16.9460 C   0  0  0  0  0  3  0  0  0  0  0  0
   25.5780  -27.3860  -15.8870 C   0  0  0  0  0  3  0  0  0  0  0  0
   26.0560  -28.7290  -16.6040 C   0  0  0  0  0  3  0  0  0  0  0  0
   27.1050  -29.5830  -15.8710 C   0  0  0  0  0  1  0  0  0  0  0  0
   23.1220  -28.2960  -18.4660 O   0  0  0  0  0  0  0  0  0  0  0  0
   23.7860  -26.0310  -17.0150 O   0  0  0  0  0  0  0  0  0  0  0  0
   25.4720  -24.4720  -15.3600 N   0  0  0  0  0  0  0  0  0  0  0  0
   26.3970  -25.1340  -14.7020 C   0  0  0  0  0  0  0  0  0  0  0  0
   27.0180  -24.6160  -13.7490 O   0  0  0  0  0  0  0  0  0  0  0  0
   26.5800  -26.3590  -15.3120 N   0  0  0  0  0  0  0  0  0  0  0  0
   25.0480  -24.9890  -16.1190 H   0  0  0  0  0  0  0  0  0  0  0  0
   27.4440  -26.7900  -15.0190 H   0  0  0  0  0  0  0  0  0  0  0  0
   24.6450  -23.3440  -14.9950 C   0  0  0  0  0  3  0  0  0  0  0  0
   21.5420  -23.6430  -12.5860 C   0  0  0  0  0  3  0  0  0  0  0  0
   21.0620  -22.4230  -11.7920 C   0  0  0  0  0  2  0  0  0  0  0  0
   22.3160  -21.6020  -11.5780 C   0  0  0  0  0  3  0  0  0  0  0  0
   23.1950  -21.8840  -12.7950 C   0  0  0  0  0  2  0  0  0  0  0  0
   22.7310  -23.1650  -13.3240 N   0  0  0  0  0  0  0  0  0  0  0  0
   23.3990  -23.9090  -14.2280 C   0  0  0  0  0  0  0  0  0  0  0  0
   23.0690  -25.0870  -14.3590 O   0  0  0  0  0  0  0  0  0  0  0  0
   19.6140  -25.1170  -12.8820 N   0  0  0  0  0  0  0  0  0  0  0  0
   20.3880  -24.1860  -13.4530 C   0  0  0  0  0  0  0  0  0  0  0  0
   20.1790  -23.7350  -14.5810 O   0  0  0  0  0  0  0  0  0  0  0  0
   19.8720  -25.4490  -11.9610 H   0  0  0  0  0  0  0  0  0  0  0  0
   18.3610  -25.6190  -13.4310 C   0  0  0  0  0  2  0  0  0  0  0  0
   14.9570  -23.0760  -12.4820 C   0  0  0  0  0  0  0  0  0  0  0  0
   15.9700  -23.2910  -11.5250 C   0  0  0  0  0  3  0  0  0  0  0  0
   17.0710  -24.1090  -11.8300 C   0  0  0  0  0  3  0  0  0  0  0  0
   15.0600  -23.6850  -13.7510 C   0  0  0  0  0  3  0  0  0  0  0  0
   16.1640  -24.5040  -14.0550 C   0  0  0  0  0  3  0  0  0  0  0  0
   17.1750  -24.7220  -13.0970 C   0  0  0  0  0  0  0  0  0  0  0  0
   11.8610  -23.5320  -13.2680 C   0  0  0  0  0  1  0  0  0  0  0  0
   12.4850  -22.4240  -12.4430 C   0  0  0  0  0  0  0  0  0  0  0  0
   11.6440  -21.4850  -11.8800 N   0  0  0  0  0  0  0  0  0  0  0  0
   12.2410  -20.5740  -10.9110 C   0  0  0  0  0  2  0  0  0  0  0  0
   14.0220  -20.8340  -11.1410 S   0  0  0  0  0  0  0  0  0  0  0  0
   13.7750  -22.2790  -12.1100 C   0  0  0  0  0  0  0  0  0  0  0  0
   10.6330  -21.5340  -11.9480 H   0  0  0  0  0  0  0  0  0  0  0  0
   22.9980  -22.0400  -10.4150 O   0  0  0  0  0  0  0  0  0  0  0  0
   23.2350  -22.9560  -10.5250 H   0  0  0  0  0  0  0  0  0  0  0  0
   24.3550  -22.5950  -16.3620 C   0  0  1  0  0  0  0  0  0  0  0  0
   25.6800  -21.9750  -16.8670 C   0  0  0  0  0  1  0  0  0  0  0  0
   23.8230  -23.4380  -17.5370 C   0  0  0  0  0  1  0  0  0  0  0  0
   23.3340  -21.4600  -16.1890 C   0  0  0  0  0  1  0  0  0  0  0  0
   24.4210  -30.7120  -17.8290 C   0  0  0  0  0  2  0  0  0  0  0  0
   23.0650  -31.5010  -17.5620 C   0  0  0  0  0  2  0  0  0  0  0  0
   20.7440  -31.2760  -16.4410 C   0  0  0  0  0  0  0  0  0  0  0  0
   20.0020  -30.6020  -15.7150 O   0  0  0  0  0  0  0  0  0  0  0  0
   21.8830  -30.7660  -17.0040 N   0  0  0  0  0  0  0  0  0  0  0  0
   21.9940  -29.7610  -16.9570 H   0  0  0  0  0  0  0  0  0  0  0  0
   20.4590  -32.7780  -16.5810 C   0  0  0  0  0  2  0  0  0  0  0  0
   20.9460  -33.5550  -15.3320 C   0  0  0  0  0  3  0  0  0  0  0  0
   22.3410  -33.2100  -15.0640 N   0  0  0  0  0  0  0  0  0  0  0  0
   20.8140  -35.0610  -15.4340 C   0  0  0  0  0  0  0  0  0  0  0  0
   20.4640  -35.7620  -16.5180 N   0  0  0  0  0  0  0  0  0  0  0  0
   20.5910  -37.0910  -16.1600 N   0  0  0  0  0  0  0  0  0  0  0  0
   21.0140  -37.0860  -14.8930 C   0  0  0  0  0  0  0  0  0  0  0  0
   21.3420  -38.3340  -14.1320 C   0  0  0  0  0  1  0  0  0  0  0  0
   21.1420  -35.8410  -14.3850 N   0  0  0  0  0  0  0  0  0  0  0  0
   21.5200  -35.4060  -13.0970 C   0  0  0  0  0  0  0  0  0  0  0  0
   21.0170  -36.1300  -11.6050 S   0  0  0  0  0  0  0  0  0  0  0  0
   21.8180  -34.8880  -10.6800 C   0  0  0  0  0  0  0  0  0  0  0  0
   21.7690  -34.9330   -9.1890 C   0  0  0  0  0  1  0  0  0  0  0  0
   22.4250  -33.9500  -11.4870 C   0  0  0  0  0  0  0  0  0  0  0  0
   23.1290  -32.7330  -10.9350 C   0  0  0  0  0  1  0  0  0  0  0  0
   22.2860  -34.2830  -12.8780 C   0  0  0  0  0  0  0  0  0  0  0  0
   22.9210  -33.4950  -13.9700 C   0  0  0  0  0  0  0  0  0  0  0  0
   24.3120  -33.0400  -13.8010 C   0  0  0  0  0  0  0  0  0  0  0  0
   25.3160  -33.9570  -13.4270 C   0  0  0  0  0  3  0  0  0  0  0  0
   26.6410  -33.5180  -13.2390 C   0  0  0  0  0  3  0  0  0  0  0  0
   26.9600  -32.1620  -13.4090 C   0  0  0  0  0  0  0  0  0  0  0  0
   28.5790  -31.6070  -13.2050 Cl  0  0  0  0  0  0  0  0  0  0  0  0
   25.9500  -31.2480  -13.7280 C   0  0  0  0  0  3  0  0  0  0  0  0
   24.6280  -31.6780  -13.9490 C   0  0  0  0  0  3  0  0  0  0  0  0
  1  3  1  0
  1  2  1  0
  2  4  1  0
  3 47  1  0
  3  5  1  0
  4 12  1  0
  5  4  1  0
  5  6  1  0
  7  1  2  0
  8  2  2  0
  9 15  1  0
  9 10  1  0
 10 11  2  0
 12 14  1  0
 12 10  1  0
 13  9  1  0
 15 21  1  0
 16 24  1  0
 16 17  1  0
 17 18  1  0
 18 41  1  0
 19 18  1  0
 20 19  1  0
 20 16  1  0
 21 20  1  0
 22 21  2  0
 23 26  1  0
 24 23  1  0
 25 24  2  0
 27 33  1  0
 27 23  1  0
 28 39  1  0
 28 29  1  0
 30 29  2  0
 31 28  2  0
 32 31  1  0
 32 33  2  0
 33 30  1  0
 34 35  1  0
 35 39  2  0
 35 36  1  0
 36 37  1  0
 38 37  1  0
 39 38  1  0
 40 36  1  0
 42 41  1  0
 43 46  1  1
 43 15  1  0
 44 43  1  0
 45 43  1  0
 47 48  1  0
 48 51  1  0
 49 50  2  0
 51 52  1  0
 51 49  1  0
 53 49  1  0
 54 53  1  0
 54 55  1  0
 55 69  2  0
 56 54  1  0
 56 61  1  0
 57 58  1  0
 57 56  2  0
 58 59  2  0
 59 61  1  0
 59 60  1  0
 61 62  1  0
 62 68  2  0
 62 63  1  0
 63 64  1  0
 64 65  1  0
 66 67  1  0
 66 64  2  0
 68 66  1  0
 69 70  1  0
 69 68  1  0
 70 71  1  0
 71 72  2  0
 73 72  1  0
 73 74  1  0
 75 73  2  0
 76 70  2  0
 76 75  1  0
M  ISO  4  10 101  12 101  49 100  51 100
M  END
>  <TORSDO>  (75) 
F 15

>  <SCORE>  (75) 
-7.393

>  <name>  (75) 
74

>  <ligand_id>  (75) 
74

>  <original_smiles>  (75) 
[H]OC1([H])C([H])([H])N(C(=O)C([H])(N([H])C(=O)N([H])C2([H])C(=O)C(=O)C([H])(C([H])([H])C([H])([H])N([H])C(=O)C([H])([H])C3([H])N=C(c4c([H])c([H])c(Cl)c([H])c4[H])c4c(sc(C([H])([H])[H])c4C([H])([H])[H])-n4c(C([H])([H])[H])nnc43)C2([H])C([H])([H])[H])C(C([H])([H])[H])(C([H])([H])[H])C([H])([H])[H])C([H])(C(=O)N([H])C([H])([H])c2c([H])c([H])c(C3=C(C([H])([H])[H])N([H])C([H])([H])S3)c([H])c2[H])C1([H])[H]

>  <smiles>  (75) 
[H]OC1([H])C([H])([H])N(C(=O)C([H])(N([H])C(=O)N([H])C2([H])C(=O)C(=O)C([H])(C([H])([H])C([H])([H])N([H])C(=O)C([H])([H])C3([H])N=C(c4c([H])c([H])c(Cl)c([H])c4[H])c4c(sc(C([H])([H])[H])c4C([H])([H])[H])-n4c(C([H])([H])[H])nnc43)C2([H])C([H])([H])[H])C(C([H])([H])[H])(C([H])([H])[H])C([H])([H])[H])C([H])(C(=O)N([H])C([H])([H])c2c([H])c([H])c(C3=C(C([H])([H])[H])N([H])C([H])([H])S3)c([H])c2[H])C1([H])[H]

$$$$
75:0:0
     RDKit          3D

 76 83  0  0  1  0  0  0  0  0999 V2000
   22.4850  -27.8740  -14.0100 C   0  0  0  0  0  2  0  0  0  0  0  0
   21.3830  -28.5040  -14.8330 C   0  0  0  0  0  2  0  0  0  0  0  0
   23.8630  -28.1410  -14.6260 C   0  0  0  0  0  2  0  0  0  0  0  0
   21.1850  -27.8300  -16.2080 C   0  0  0  0  0  2  0  0  0  0  0  0
   24.6130  -26.8830  -15.0850 C   0  0  0  0  0  2  0  0  0  0  0  0
   22.2840  -27.8650  -17.3220 C   0  0  0  0  0  2  0  0  0  0  0  0
   24.8230  -26.6410  -16.6110 C   0  0  0  0  0  3  0  0  0  0  0  0
   23.5740  -26.9790  -17.6440 C   0  0  0  0  0  3  0  0  0  0  0  0
   24.6400  -24.3070  -17.2200 N   0  0  0  0  0  0  0  0  0  0  0  0
   25.4580  -25.1720  -16.6590 C   0  0  0  0  0  0  0  0  0  0  0  0
   26.4450  -24.7900  -16.0050 O   0  0  0  0  0  0  0  0  0  0  0  0
   24.0040  -24.7890  -17.8370 H   0  0  0  0  0  0  0  0  0  0  0  0
   23.8970  -23.3030  -16.4590 C   0  0  0  0  0  3  0  0  0  0  0  0
   21.5830  -24.0570  -13.3450 C   0  0  0  0  0  3  0  0  0  0  0  0
   21.3440  -22.9760  -12.2860 C   0  0  0  0  0  2  0  0  0  0  0  0
   22.6180  -22.1530  -12.3060 C   0  0  0  0  0  3  0  0  0  0  0  0
   23.1160  -22.2300  -13.7450 C   0  0  0  0  0  2  0  0  0  0  0  0
   22.5330  -23.4400  -14.2950 N   0  0  0  0  0  0  0  0  0  0  0  0
   22.8880  -23.9870  -15.4700 C   0  0  0  0  0  0  0  0  0  0  0  0
   22.4060  -25.0680  -15.7470 O   0  0  0  0  0  0  0  0  0  0  0  0
   19.6830  -25.5660  -13.2940 N   0  0  0  0  0  0  0  0  0  0  0  0
   20.2380  -24.5250  -13.9240 C   0  0  0  0  0  0  0  0  0  0  0  0
   19.7010  -23.9290  -14.8610 O   0  0  0  0  0  0  0  0  0  0  0  0
   20.2080  -25.9880  -12.5400 H   0  0  0  0  0  0  0  0  0  0  0  0
   18.3410  -26.0670  -13.5280 C   0  0  0  0  0  2  0  0  0  0  0  0
   15.2620  -23.1890  -12.4200 C   0  0  0  0  0  0  0  0  0  0  0  0
   16.3660  -23.4030  -11.5730 C   0  0  0  0  0  3  0  0  0  0  0  0
   17.3660  -24.3290  -11.9210 C   0  0  0  0  0  3  0  0  0  0  0  0
   15.1680  -23.9120  -13.6300 C   0  0  0  0  0  3  0  0  0  0  0  0
   16.1690  -24.8400  -13.9800 C   0  0  0  0  0  3  0  0  0  0  0  0
   17.2680  -25.0570  -13.1290 C   0  0  0  0  0  0  0  0  0  0  0  0
   12.0750  -23.3740  -12.9180 C   0  0  0  0  0  1  0  0  0  0  0  0
   12.8720  -22.3020  -12.2010 C   0  0  0  0  0  0  0  0  0  0  0  0
   12.1710  -21.2690  -11.6070 N   0  0  0  0  0  0  0  0  0  0  0  0
   12.9330  -20.3750  -10.7440 C   0  0  0  0  0  2  0  0  0  0  0  0
   14.6560  -20.8200  -11.1040 S   0  0  0  0  0  0  0  0  0  0  0  0
   14.1910  -22.2680  -11.9880 C   0  0  0  0  0  0  0  0  0  0  0  0
   11.1600  -21.2280  -11.5810 H   0  0  0  0  0  0  0  0  0  0  0  0
   23.6030  -22.6970  -11.4360 O   0  0  0  0  0  0  0  0  0  0  0  0
   23.8500  -23.5710  -11.7230 H   0  0  0  0  0  0  0  0  0  0  0  0
   23.1980  -22.3850  -17.5240 C   0  0  1  0  0  0  0  0  0  0  0  0
   24.2890  -21.6150  -18.2970 C   0  0  0  0  0  1  0  0  0  0  0  0
   22.3750  -23.1940  -18.5550 C   0  0  0  0  0  1  0  0  0  0  0  0
   22.2520  -21.3460  -16.8780 C   0  0  0  0  0  1  0  0  0  0  0  0
   24.0740  -27.3500  -19.0910 C   0  0  0  0  0  2  0  0  0  0  0  0
   23.0750  -27.9690  -20.1530 C   0  0  0  0  0  2  0  0  0  0  0  0
   22.7780  -29.5160  -20.1030 C   0  0  0  0  0  2  0  0  0  0  0  0
   21.2730  -29.9210  -19.8750 C   0  0  0  0  0  2  0  0  0  0  0  0
   20.7640  -31.8140  -18.1780 C   0  0  0  0  0  0  0  0  0  0  0  0
   20.3470  -31.1880  -17.1980 O   0  0  0  0  0  0  0  0  0  0  0  0
   21.1100  -31.2970  -19.3800 N   0  0  0  0  0  0  0  0  0  0  0  0
   21.4450  -32.0020  -20.0210 H   0  0  0  0  0  0  0  0  0  0  0  0
   21.0520  -33.3130  -18.0560 C   0  0  0  0  0  2  0  0  0  0  0  0
   21.5260  -33.7460  -16.6430 C   0  0  0  0  0  3  0  0  0  0  0  0
   22.8500  -33.1860  -16.3380 N   0  0  0  0  0  0  0  0  0  0  0  0
   21.5770  -35.2490  -16.4470 C   0  0  0  0  0  0  0  0  0  0  0  0
   21.4690  -36.1860  -17.4020 N   0  0  0  0  0  0  0  0  0  0  0  0
   21.6850  -37.3920  -16.7640 N   0  0  0  0  0  0  0  0  0  0  0  0
   21.9060  -37.0910  -15.4760 C   0  0  0  0  0  0  0  0  0  0  0  0
   22.2340  -38.1100  -14.4280 C   0  0  0  0  0  1  0  0  0  0  0  0
   21.8320  -35.7710  -15.2350 N   0  0  0  0  0  0  0  0  0  0  0  0
   21.9810  -35.0390  -14.0310 C   0  0  0  0  0  0  0  0  0  0  0  0
   21.3570  -35.5010  -12.4810 S   0  0  0  0  0  0  0  0  0  0  0  0
   21.9040  -34.0040  -11.7700 C   0  0  0  0  0  0  0  0  0  0  0  0
   21.6410  -33.7360  -10.3230 C   0  0  0  0  0  1  0  0  0  0  0  0
   22.5250  -33.1890  -12.6900 C   0  0  0  0  0  0  0  0  0  0  0  0
   23.0170  -31.8070  -12.3480 C   0  0  0  0  0  1  0  0  0  0  0  0
   22.6110  -33.8200  -13.9840 C   0  0  0  0  0  0  0  0  0  0  0  0
   23.3220  -33.2040  -15.1430 C   0  0  0  0  0  0  0  0  0  0  0  0
   24.6400  -32.5780  -14.8990 C   0  0  0  0  0  0  0  0  0  0  0  0
   25.5800  -33.1110  -13.9930 C   0  0  0  0  0  3  0  0  0  0  0  0
   26.7960  -32.4370  -13.7650 C   0  0  0  0  0  3  0  0  0  0  0  0
   27.0870  -31.2510  -14.4660 C   0  0  0  0  0  0  0  0  0  0  0  0
   28.5860  -30.4440  -14.2170 Cl  0  0  0  0  0  0  0  0  0  0  0  0
   26.1540  -30.7280  -15.3790 C   0  0  0  0  0  3  0  0  0  0  0  0
   24.9270  -31.3860  -15.5600 C   0  0  0  0  0  3  0  0  0  0  0  0
  2  1  1  0
  3  1  1  0
  4  2  1  0
  5  3  1  0
  6  4  1  0
  7 10  1  0
  7  5  1  0
  8 45  1  0
  8  6  1  0
  8  7  1  0
  9 10  1  0
  9 13  1  0
 10 11  2  0
 12  9  1  0
 13 19  1  0
 14 22  1  0
 14 15  1  0
 16 15  1  0
 16 39  1  0
 17 16  1  0
 18 17  1  0
 18 14  1  0
 19 18  1  0
 20 19  2  0
 21 24  1  0
 22 21  1  0
 23 22  2  0
 25 21  1  0
 25 31  1  0
 26 37  1  0
 26 27  1  0
 28 27  2  0
 29 26  2  0
 30 29  1  0
 30 31  2  0
 31 28  1  0
 32 33  1  0
 33 37  2  0
 33 34  1  0
 34 38  1  0
 34 35  1  0
 36 35  1  0
 37 36  1  0
 40 39  1  0
 41 44  1  1
 41 13  1  0
 42 41  1  0
 43 41  1  0
 46 47  1  0
 46 45  1  0
 47 48  1  0
 48 51  1  0
 49 53  1  0
 49 50  2  0
 51 49  1  0
 52 51  1  0
 54 53  1  0
 54 56  1  0
 54 55  1  0
 55 69  2  0
 56 61  1  0
 57 58  1  0
 57 56  2  0
 58 59  2  0
 59 61  1  0
 59 60  1  0
 61 62  1  0
 62 68  2  0
 62 63  1  0
 63 64  1  0
 64 65  1  0
 66 67  1  0
 66 64  2  0
 68 66  1  0
 69 70  1  0
 69 68  1  0
 70 71  1  0
 71 72  2  0
 73 74  1  0
 73 72  1  0
 75 73  2  0
 76 75  1  0
 76 70  2  0
M  ISO  4   7 101  10 101  49 100  51 100
M  END
>  <TORSDO>  (76) 
F 17

>  <SCORE>  (76) 
-9.219

>  <name>  (76) 
75

>  <ligand_id>  (76) 
75

>  <original_smiles>  (76) 
[H]OC1([H])C([H])([H])N(C(=O)C([H])(N([H])C(=O)C2([H])C([H])([H])C([H])([H])C([H])([H])C([H])([H])C([H])([H])C([H])([H])C2([H])C([H])([H])C([H])([H])C([H])([H])C([H])([H])N([H])C(=O)C([H])([H])C2([H])N=C(c3c([H])c([H])c(Cl)c([H])c3[H])c3c(sc(C([H])([H])[H])c3C([H])([H])[H])-n3c(C([H])([H])[H])nnc32)C(C([H])([H])[H])(C([H])([H])[H])C([H])([H])[H])C([H])(C(=O)N([H])C([H])([H])c2c([H])c([H])c(C3=C(C([H])([H])[H])N([H])C([H])([H])S3)c([H])c2[H])C1([H])[H]

>  <smiles>  (76) 
[H]OC1([H])C([H])([H])N(C(=O)C([H])(N([H])C(=O)C2([H])C([H])([H])C([H])([H])C([H])([H])C([H])([H])C([H])([H])C([H])([H])C2([H])C([H])([H])C([H])([H])C([H])([H])C([H])([H])N([H])C(=O)C([H])([H])C2([H])N=C(c3c([H])c([H])c(Cl)c([H])c3[H])c3c(sc(C([H])([H])[H])c3C([H])([H])[H])-n3c(C([H])([H])[H])nnc32)C(C([H])([H])[H])(C([H])([H])[H])C([H])([H])[H])C([H])(C(=O)N([H])C([H])([H])c2c([H])c([H])c(C3=C(C([H])([H])[H])N([H])C([H])([H])S3)c([H])c2[H])C1([H])[H]

$$$$
76:0:0
     RDKit          3D

 80 86  0  0  1  0  0  0  0  0999 V2000
   25.7730  -24.5960  -15.5440 N   0  0  0  0  0  0  0  0  0  0  0  0
   26.5270  -25.4520  -14.8850 C   0  0  0  0  0  0  0  0  0  0  0  0
   27.2900  -25.1010  -13.9590 O   0  0  0  0  0  0  0  0  0  0  0  0
   25.2470  -27.2920  -16.1870 C   0  0  0  0  0  0  0  0  0  0  0  0
   24.1420  -26.5850  -16.4640 N   0  0  0  0  0  4  0  0  0  0  0  0
   26.2950  -26.8330  -15.3750 N   0  0  0  0  0  0  0  0  0  0  0  0
   25.1960  -28.5220  -16.7870 N   0  0  0  0  0  0  0  0  0  0  0  0
   25.3730  -24.9800  -16.3900 H   0  0  0  0  0  0  0  0  0  0  0  0
   23.7580  -25.9960  -15.7080 H   0  0  0  0  0  0  0  0  0  0  0  0
   23.4760  -26.9060  -17.1460 H   0  0  0  0  0  0  0  0  0  0  0  0
   26.9270  -27.5570  -15.0760 H   0  0  0  0  0  0  0  0  0  0  0  0
   25.9400  -29.1800  -16.5950 H   0  0  0  0  0  0  0  0  0  0  0  0
   23.2250  -29.3230  -18.2470 C   0  0  0  0  0  3  0  0  0  0  0  0
   21.7700  -29.7950  -20.3370 C   0  0  0  0  0  1  0  0  0  0  0  0
   22.8960  -29.2430  -19.5610 N   0  0  0  0  0  0  0  0  0  0  0  0
   24.4420  -28.7280  -18.0070 N   0  0  0  0  0  0  0  0  0  0  0  0
   22.3960  -29.9260  -17.3300 N   0  0  0  0  0  0  0  0  0  0  0  0
   23.5380  -28.7410  -20.1580 H   0  0  0  0  0  0  0  0  0  0  0  0
   24.8980  -28.3730  -18.8360 H   0  0  0  0  0  0  0  0  0  0  0  0
   22.6720  -30.0280  -16.3640 H   0  0  0  0  0  0  0  0  0  0  0  0
   20.3960  -31.1550  -16.8560 C   0  0  0  0  0  0  0  0  0  0  0  0
   19.8050  -30.7800  -15.8440 O   0  0  0  0  0  0  0  0  0  0  0  0
   21.0310  -30.2570  -17.6440 N   0  0  0  0  0  0  0  0  0  0  0  0
   20.6150  -29.3350  -17.6270 H   0  0  0  0  0  0  0  0  0  0  0  0
   20.4410  -32.6660  -17.1880 C   0  0  0  0  0  2  0  0  0  0  0  0
   20.9680  -33.4960  -15.9890 C   0  0  0  0  0  3  0  0  0  0  0  0
   22.2850  -32.9610  -15.6540 N   0  0  0  0  0  0  0  0  0  0  0  0
   21.0650  -35.0030  -16.1980 C   0  0  0  0  0  0  0  0  0  0  0  0
   20.8330  -35.6780  -17.3320 N   0  0  0  0  0  0  0  0  0  0  0  0
   21.1410  -36.9980  -17.0560 N   0  0  0  0  0  0  0  0  0  0  0  0
   21.5370  -37.0200  -15.7790 C   0  0  0  0  0  0  0  0  0  0  0  0
   22.0270  -38.2580  -15.0890 C   0  0  0  0  0  1  0  0  0  0  0  0
   21.4750  -35.8060  -15.1920 N   0  0  0  0  0  0  0  0  0  0  0  0
   21.7520  -35.4170  -13.8650 C   0  0  0  0  0  0  0  0  0  0  0  0
   21.3350  -36.3190  -12.4420 S   0  0  0  0  0  0  0  0  0  0  0  0
   21.9250  -35.0480  -11.4090 C   0  0  0  0  0  0  0  0  0  0  0  0
   21.8510  -35.2120   -9.9250 C   0  0  0  0  0  1  0  0  0  0  0  0
   22.4010  -33.9730  -12.1290 C   0  0  0  0  0  0  0  0  0  0  0  0
   22.9050  -32.7120  -11.4720 C   0  0  0  0  0  1  0  0  0  0  0  0
   22.3400  -34.2130  -13.5480 C   0  0  0  0  0  0  0  0  0  0  0  0
   22.8760  -33.2560  -14.5630 C   0  0  0  0  0  0  0  0  0  0  0  0
   24.1840  -32.6180  -14.3230 C   0  0  0  0  0  0  0  0  0  0  0  0
   25.2750  -33.3930  -13.8790 C   0  0  0  0  0  3  0  0  0  0  0  0
   26.5180  -32.7820  -13.6280 C   0  0  0  0  0  3  0  0  0  0  0  0
   26.6660  -31.3960  -13.8010 C   0  0  0  0  0  0  0  0  0  0  0  0
   28.1760  -30.6260  -13.4930 Cl  0  0  0  0  0  0  0  0  0  0  0  0
   25.5690  -30.6230  -14.2020 C   0  0  0  0  0  3  0  0  0  0  0  0
   24.3330  -31.2260  -14.4910 C   0  0  0  0  0  3  0  0  0  0  0  0
   24.9590  -23.5050  -15.0390 C   0  0  0  0  0  3  0  0  0  0  0  0
   21.8490  -23.8460  -12.6350 C   0  0  0  0  0  3  0  0  0  0  0  0
   21.3660  -22.6260  -11.8370 C   0  0  0  0  0  2  0  0  0  0  0  0
   22.6170  -21.8010  -11.6220 C   0  0  0  0  0  3  0  0  0  0  0  0
   23.4980  -22.0900  -12.8370 C   0  0  0  0  0  2  0  0  0  0  0  0
   23.0430  -23.3750  -13.3700 N   0  0  0  0  0  0  0  0  0  0  0  0
   23.7060  -24.0930  -14.3050 C   0  0  0  0  0  0  0  0  0  0  0  0
   23.3590  -25.2470  -14.5760 O   0  0  0  0  0  0  0  0  0  0  0  0
   19.9240  -25.3200  -12.9370 N   0  0  0  0  0  0  0  0  0  0  0  0
   20.6930  -24.3810  -13.5000 C   0  0  0  0  0  0  0  0  0  0  0  0
   20.4730  -23.9150  -14.6210 O   0  0  0  0  0  0  0  0  0  0  0  0
   20.1860  -25.6600  -12.0220 H   0  0  0  0  0  0  0  0  0  0  0  0
   18.6710  -25.8200  -13.4890 C   0  0  0  0  0  2  0  0  0  0  0  0
   15.2700  -23.2560  -12.5820 C   0  0  0  0  0  0  0  0  0  0  0  0
   16.2950  -23.4370  -11.6310 C   0  0  0  0  0  3  0  0  0  0  0  0
   17.3950  -24.2610  -11.9210 C   0  0  0  0  0  3  0  0  0  0  0  0
   15.3610  -23.9080  -13.8310 C   0  0  0  0  0  3  0  0  0  0  0  0
   16.4640  -24.7330  -14.1210 C   0  0  0  0  0  3  0  0  0  0  0  0
   17.4870  -24.9150  -13.1690 C   0  0  0  0  0  0  0  0  0  0  0  0
   12.1610  -23.7790  -13.2700 C   0  0  0  0  0  1  0  0  0  0  0  0
   12.7940  -22.6240  -12.5190 C   0  0  0  0  0  0  0  0  0  0  0  0
   11.9580  -21.6650  -11.9870 N   0  0  0  0  0  0  0  0  0  0  0  0
   12.5680  -20.6990  -11.0800 C   0  0  0  0  0  2  0  0  0  0  0  0
   14.3450  -20.9560  -11.3380 S   0  0  0  0  0  0  0  0  0  0  0  0
   14.0900  -22.4510  -12.2260 C   0  0  0  0  0  0  0  0  0  0  0  0
   10.9440  -21.7240  -12.0300 H   0  0  0  0  0  0  0  0  0  0  0  0
   23.2950  -22.2280  -10.4510 O   0  0  0  0  0  0  0  0  0  0  0  0
   23.5090  -23.1510  -10.5450 H   0  0  0  0  0  0  0  0  0  0  0  0
   24.6300  -22.6440  -16.3130 C   0  0  1  0  0  0  0  0  0  0  0  0
   25.9400  -22.0130  -16.8420 C   0  0  0  0  0  1  0  0  0  0  0  0
   24.0070  -23.4540  -17.4800 C   0  0  0  0  0  1  0  0  0  0  0  0
   23.6630  -21.4930  -15.9840 C   0  0  0  0  0  1  0  0  0  0  0  0
  1 49  1  0
  1  2  1  0
  2  3  2  0
  4  6  1  0
  5  4  2  0
  5  9  1  0
  6 11  1  0
  6  2  1  0
  7 12  1  0
  7  4  1  0
  8  1  1  0
 10  5  1  0
 13 15  1  0
 13 16  1  0
 13 17  1  0
 14 15  1  0
 16  7  1  0
 17 20  1  0
 18 15  1  0
 19 16  1  0
 21 22  2  0
 23 24  1  0
 23 17  1  0
 23 21  1  0
 25 21  1  0
 26 25  1  0
 26 27  1  0
 27 41  2  0
 28 26  1  0
 28 33  1  0
 29 30  1  0
 29 28  2  0
 30 31  2  0
 31 33  1  0
 31 32  1  0
 33 34  1  0
 34 40  2  0
 34 35  1  0
 35 36  1  0
 36 37  1  0
 38 39  1  0
 38 36  2  0
 40 38  1  0
 41 42  1  0
 41 40  1  0
 42 43  1  0
 43 44  2  0
 45 44  1  0
 45 46  1  0
 47 45  2  0
 48 42  2  0
 48 47  1  0
 49 55  1  0
 50 58  1  0
 50 51  1  0
 51 52  1  0
 52 75  1  0
 53 52  1  0
 54 53  1  0
 54 50  1  0
 55 54  1  0
 56 55  2  0
 57 60  1  0
 58 57  1  0
 59 58  2  0
 61 67  1  0
 61 57  1  0
 62 73  1  0
 62 63  1  0
 64 63  2  0
 65 62  2  0
 66 65  1  0
 66 67  2  0
 67 64  1  0
 68 69  1  0
 69 73  2  0
 69 70  1  0
 70 71  1  0
 72 71  1  0
 73 72  1  0
 74 70  1  0
 76 75  1  0
 77 80  1  1
 77 49  1  0
 78 77  1  0
 79 77  1  0
M  ISO  4   2 101   6 101  21 100  23 100
M  END
>  <TORSDO>  (77) 
F 13

>  <SCORE>  (77) 
-12.902

>  <name>  (77) 
76

>  <ligand_id>  (77) 
76

>  <original_smiles>  (77) 
[H]OC1([H])C([H])([H])N(C(=O)C([H])(N([H])C(=O)N([H])C(N([H])[H])=[N+]([H])N([H])C(N([H])C([H])([H])[H])=[N+]([H])N([H])C(=O)C([H])([H])C2([H])N=C(c3c([H])c([H])c(Cl)c([H])c3[H])c3c(sc(C([H])([H])[H])c3C([H])([H])[H])-n3c(C([H])([H])[H])nnc32)C(C([H])([H])[H])(C([H])([H])[H])C([H])([H])[H])C([H])(C(=O)N([H])C([H])([H])c2c([H])c([H])c(C3=C(C([H])([H])[H])N([H])C([H])([H])S3)c([H])c2[H])C1([H])[H]

>  <smiles>  (77) 
[H]OC1([H])C([H])([H])N(C(=O)C([H])(N([H])C(=O)N([H])C(N([H])[H])=[N+]([H])N([H])C(N([H])C([H])([H])[H])=[N+]([H])N([H])C(=O)C([H])([H])C2([H])N=C(c3c([H])c([H])c(Cl)c([H])c3[H])c3c(sc(C([H])([H])[H])c3C([H])([H])[H])-n3c(C([H])([H])[H])nnc32)C(C([H])([H])[H])(C([H])([H])[H])C([H])([H])[H])C([H])(C(=O)N([H])C([H])([H])c2c([H])c([H])c(C3=C(C([H])([H])[H])N([H])C([H])([H])S3)c([H])c2[H])C1([H])[H]

$$$$
77:0:0
     RDKit          3D

 77 83  0  0  1  0  0  0  0  0999 V2000
   26.4770  -27.6550  -16.7000 C   0  0  0  0  0  2  0  0  0  0  0  0
   24.1680  -28.4800  -16.9780 C   0  0  0  0  0  0  0  0  0  0  0  0
   25.5080  -28.2610  -17.4270 N   0  0  0  0  0  0  0  0  0  0  0  0
   26.3490  -27.2340  -15.4210 N   0  0  0  0  0  0  0  0  0  0  0  0
   23.7930  -28.0860  -15.8670 O   0  0  0  0  0  0  0  0  0  0  0  0
   25.7930  -28.5810  -18.3400 H   0  0  0  0  0  0  0  0  0  0  0  0
   25.4560  -27.3260  -14.9390 H   0  0  0  0  0  0  0  0  0  0  0  0
   26.0160  -24.6740  -15.2170 N   0  0  0  0  0  0  0  0  0  0  0  0
   26.9550  -25.2050  -14.4270 C   0  0  0  0  0  0  0  0  0  0  0  0
   27.4070  -24.6330  -13.4330 O   0  0  0  0  0  0  0  0  0  0  0  0
   27.3330  -26.4370  -14.8060 N   0  0  0  0  0  0  0  0  0  0  0  0
   25.7810  -25.1730  -16.0560 H   0  0  0  0  0  0  0  0  0  0  0  0
   27.9440  -27.0260  -14.2570 H   0  0  0  0  0  0  0  0  0  0  0  0
   25.1230  -23.5580  -14.9340 C   0  0  0  0  0  3  0  0  0  0  0  0
   21.8680  -23.8260  -12.7410 C   0  0  0  0  0  3  0  0  0  0  0  0
   21.3340  -22.5770  -12.0210 C   0  0  0  0  0  2  0  0  0  0  0  0
   22.5680  -21.7370  -11.7630 C   0  0  0  0  0  3  0  0  0  0  0  0
   23.5210  -22.0750  -12.9070 C   0  0  0  0  0  2  0  0  0  0  0  0
   23.1030  -23.3860  -13.4200 N   0  0  0  0  0  0  0  0  0  0  0  0
   23.8310  -24.1400  -14.2830 C   0  0  0  0  0  0  0  0  0  0  0  0
   23.5230  -25.3090  -14.5390 O   0  0  0  0  0  0  0  0  0  0  0  0
   19.9830  -25.3290  -13.1120 N   0  0  0  0  0  0  0  0  0  0  0  0
   20.7670  -24.3910  -13.6550 C   0  0  0  0  0  0  0  0  0  0  0  0
   20.5970  -23.9440  -14.7910 O   0  0  0  0  0  0  0  0  0  0  0  0
   20.2030  -25.6490  -12.1790 H   0  0  0  0  0  0  0  0  0  0  0  0
   18.7660  -25.8590  -13.7160 C   0  0  0  0  0  2  0  0  0  0  0  0
   15.2530  -23.4190  -12.9020 C   0  0  0  0  0  0  0  0  0  0  0  0
   16.2620  -23.5580  -11.9250 C   0  0  0  0  0  3  0  0  0  0  0  0
   17.3990  -24.3420  -12.1860 C   0  0  0  0  0  3  0  0  0  0  0  0
   15.3980  -24.0710  -14.1450 C   0  0  0  0  0  3  0  0  0  0  0  0
   16.5370  -24.8560  -14.4050 C   0  0  0  0  0  3  0  0  0  0  0  0
   17.5430  -24.9970  -13.4280 C   0  0  0  0  0  0  0  0  0  0  0  0
   12.1800  -24.0830  -13.6260 C   0  0  0  0  0  1  0  0  0  0  0  0
   12.7520  -22.8900  -12.8860 C   0  0  0  0  0  0  0  0  0  0  0  0
   11.8690  -21.9570  -12.3830 N   0  0  0  0  0  0  0  0  0  0  0  0
   12.4250  -20.9510  -11.4860 C   0  0  0  0  0  2  0  0  0  0  0  0
   14.2140  -21.1390  -11.7120 S   0  0  0  0  0  0  0  0  0  0  0  0
   14.0350  -22.6580  -12.5760 C   0  0  0  0  0  0  0  0  0  0  0  0
   10.8590  -22.0590  -12.4410 H   0  0  0  0  0  0  0  0  0  0  0  0
   23.1700  -22.1120  -10.5340 O   0  0  0  0  0  0  0  0  0  0  0  0
   23.3990  -23.0340  -10.5780 H   0  0  0  0  0  0  0  0  0  0  0  0
   24.8640  -22.8270  -16.3020 C   0  0  1  0  0  0  0  0  0  0  0  0
   26.1900  -22.1890  -16.7810 C   0  0  0  0  0  1  0  0  0  0  0  0
   24.3560  -23.7710  -17.4230 C   0  0  0  0  0  1  0  0  0  0  0  0
   23.8440  -21.6800  -16.1470 C   0  0  0  0  0  1  0  0  0  0  0  0
   23.2370  -29.2990  -17.9160 C   0  0  0  0  0  0  0  0  0  0  0  0
   21.9920  -29.4940  -17.4560 N   0  0  0  0  0  0  0  0  0  0  0  0
   23.6550  -29.7790  -18.9760 O   0  0  0  0  0  0  0  0  0  0  0  0
   21.6950  -29.1930  -16.5350 H   0  0  0  0  0  0  0  0  0  0  0  0
   20.6200  -31.3480  -16.9980 C   0  0  0  0  0  0  0  0  0  0  0  0
   20.1330  -30.8540  -15.9770 O   0  0  0  0  0  0  0  0  0  0  0  0
   21.2590  -30.6100  -17.9160 N   0  0  0  0  0  0  0  0  0  0  0  0
   21.7260  -31.0270  -18.7120 H   0  0  0  0  0  0  0  0  0  0  0  0
   20.6870  -32.8680  -17.1810 C   0  0  0  0  0  2  0  0  0  0  0  0
   21.2790  -33.5820  -15.9360 C   0  0  0  0  0  3  0  0  0  0  0  0
   22.6110  -33.0450  -15.6320 N   0  0  0  0  0  0  0  0  0  0  0  0
   21.3590  -35.0910  -16.0730 C   0  0  0  0  0  0  0  0  0  0  0  0
   21.1420  -35.8060  -17.1840 N   0  0  0  0  0  0  0  0  0  0  0  0
   21.4140  -37.1170  -16.8450 N   0  0  0  0  0  0  0  0  0  0  0  0
   21.7850  -37.0910  -15.5600 C   0  0  0  0  0  0  0  0  0  0  0  0
   22.2290  -38.3080  -14.8070 C   0  0  0  0  0  1  0  0  0  0  0  0
   21.7440  -35.8500  -15.0290 N   0  0  0  0  0  0  0  0  0  0  0  0
   22.0160  -35.4010  -13.7210 C   0  0  0  0  0  0  0  0  0  0  0  0
   21.5540  -36.2190  -12.2640 S   0  0  0  0  0  0  0  0  0  0  0  0
   22.1650  -34.9150  -11.2850 C   0  0  0  0  0  0  0  0  0  0  0  0
   22.0630  -35.0040   -9.7960 C   0  0  0  0  0  1  0  0  0  0  0  0
   22.6810  -33.8910  -12.0500 C   0  0  0  0  0  0  0  0  0  0  0  0
   23.2120  -32.6170  -11.4430 C   0  0  0  0  0  1  0  0  0  0  0  0
   22.6290  -34.1950  -13.4580 C   0  0  0  0  0  0  0  0  0  0  0  0
   23.1950  -33.2980  -14.5190 C   0  0  0  0  0  0  0  0  0  0  0  0
   24.5210  -32.6850  -14.2870 C   0  0  0  0  0  0  0  0  0  0  0  0
   25.5740  -33.4540  -13.7450 C   0  0  0  0  0  3  0  0  0  0  0  0
   26.8270  -32.8620  -13.4980 C   0  0  0  0  0  3  0  0  0  0  0  0
   27.0320  -31.5020  -13.7930 C   0  0  0  0  0  0  0  0  0  0  0  0
   28.5620  -30.7680  -13.4920 Cl  0  0  0  0  0  0  0  0  0  0  0  0
   25.9850  -30.7360  -14.3330 C   0  0  0  0  0  3  0  0  0  0  0  0
   24.7310  -31.3220  -14.5820 C   0  0  0  0  0  3  0  0  0  0  0  0
  1  4  1  0
  2  5  2  0
  3  2  1  0
  3  1  1  0
  4  7  1  0
  4 11  1  0
  6  3  1  0
  8 14  1  0
  8  9  1  0
  9 10  2  0
 11  9  1  0
 11 13  1  0
 12  8  1  0
 14 20  1  0
 15 23  1  0
 15 16  1  0
 16 17  1  0
 17 40  1  0
 18 17  1  0
 19 18  1  0
 19 15  1  0
 20 19  1  0
 21 20  2  0
 22 25  1  0
 23 22  1  0
 24 23  2  0
 26 32  1  0
 26 22  1  0
 27 38  1  0
 27 28  1  0
 29 28  2  0
 30 27  2  0
 31 30  1  0
 31 32  2  0
 32 29  1  0
 33 34  1  0
 34 38  2  0
 34 35  1  0
 35 36  1  0
 37 36  1  0
 38 37  1  0
 39 35  1  0
 41 40  1  0
 42 45  1  1
 42 14  1  0
 43 42  1  0
 44 42  1  0
 46 47  1  0
 46  2  1  0
 47 49  1  0
 48 46  2  0
 50 51  2  0
 52 47  1  0
 52 50  1  0
 53 52  1  0
 54 50  1  0
 55 54  1  0
 55 56  1  0
 56 70  2  0
 57 55  1  0
 57 62  1  0
 58 59  1  0
 58 57  2  0
 59 60  2  0
 60 62  1  0
 60 61  1  0
 62 63  1  0
 63 69  2  0
 63 64  1  0
 64 65  1  0
 65 66  1  0
 67 68  1  0
 67 65  2  0
 69 67  1  0
 70 71  1  0
 70 69  1  0
 71 72  1  0
 72 73  2  0
 74 73  1  0
 74 75  1  0
 76 74  2  0
 77 76  1  0
 77 71  2  0
M  ISO  4   9 101  11 101  50 100  52 100
M  END
>  <TORSDO>  (78) 
F 14

>  <SCORE>  (78) 
-12.934

>  <name>  (78) 
77

>  <ligand_id>  (78) 
77

>  <original_smiles>  (78) 
[H]OC1([H])C([H])([H])N(C(=O)C([H])(N([H])C(=O)N([H])[N+]([H])=C([H])N([H])C(=O)C(=O)N([H])N([H])C(=O)C([H])([H])C2([H])N=C(c3c([H])c([H])c(Cl)c([H])c3[H])c3c(sc(C([H])([H])[H])c3C([H])([H])[H])-n3c(C([H])([H])[H])nnc32)C(C([H])([H])[H])(C([H])([H])[H])C([H])([H])[H])C([H])(C(=O)N([H])C([H])([H])c2c([H])c([H])c(C3=C(C([H])([H])[H])N([H])C([H])([H])S3)c([H])c2[H])C1([H])[H]

>  <smiles>  (78) 
[H]OC1([H])C([H])([H])N(C(=O)C([H])(N([H])C(=O)N([H])[N+]([H])=C([H])N([H])C(=O)C(=O)N([H])N([H])C(=O)C([H])([H])C2([H])N=C(c3c([H])c([H])c(Cl)c([H])c3[H])c3c(sc(C([H])([H])[H])c3C([H])([H])[H])-n3c(C([H])([H])[H])nnc32)C(C([H])([H])[H])(C([H])([H])[H])C([H])([H])[H])C([H])(C(=O)N([H])C([H])([H])c2c([H])c([H])c(C3=C(C([H])([H])[H])N([H])C([H])([H])S3)c([H])c2[H])C1([H])[H]

$$$$
78:0:0
     RDKit          3D

 77 83  0  0  1  0  0  0  0  0999 V2000
   26.2200  -27.4410  -15.8470 C   0  0  0  0  0  0  0  0  0  0  0  0
   27.0220  -26.6600  -15.1490 N   0  0  0  0  0  2  0  0  0  0  0  0
   26.8310  -28.4080  -16.6070 N   0  0  0  0  0  4  0  0  0  0  0  0
   24.8110  -27.4870  -15.9680 N   0  0  0  0  0  0  0  0  0  0  0  0
   27.8330  -28.5340  -16.6470 H   0  0  0  0  0  0  0  0  0  0  0  0
   26.3530  -29.1170  -17.1440 H   0  0  0  0  0  0  0  0  0  0  0  0
   24.2280  -26.8660  -15.3970 H   0  0  0  0  0  0  0  0  0  0  0  0
   23.2970  -28.5950  -17.7030 C   0  0  0  0  0  3  0  0  0  0  0  0
   23.0050  -28.5010  -19.1740 C   0  0  0  0  0  1  0  0  0  0  0  0
   22.6740  -29.5950  -16.9990 N   0  0  0  0  0  0  0  0  0  0  0  0
   24.1860  -27.6430  -17.2580 N   0  0  0  0  0  0  0  0  0  0  0  0
   22.6830  -29.6250  -15.9890 H   0  0  0  0  0  0  0  0  0  0  0  0
   24.5170  -27.0220  -17.9860 H   0  0  0  0  0  0  0  0  0  0  0  0
   21.0200  -31.3900  -17.1180 C   0  0  0  0  0  0  0  0  0  0  0  0
   20.2490  -30.8860  -16.3010 O   0  0  0  0  0  0  0  0  0  0  0  0
   22.0400  -30.6950  -17.6910 N   0  0  0  0  0  0  0  0  0  0  0  0
   22.7550  -31.1630  -18.2290 H   0  0  0  0  0  0  0  0  0  0  0  0
   20.9840  -32.9230  -17.3530 C   0  0  0  0  0  2  0  0  0  0  0  0
   21.4420  -33.6710  -16.0650 C   0  0  0  0  0  3  0  0  0  0  0  0
   22.7860  -33.2000  -15.7270 N   0  0  0  0  0  0  0  0  0  0  0  0
   21.4440  -35.1950  -16.1100 C   0  0  0  0  0  0  0  0  0  0  0  0
   21.2410  -35.9730  -17.1800 N   0  0  0  0  0  0  0  0  0  0  0  0
   21.4460  -37.2710  -16.7460 N   0  0  0  0  0  0  0  0  0  0  0  0
   21.7660  -37.1770  -15.4510 C   0  0  0  0  0  0  0  0  0  0  0  0
   22.1340  -38.3600  -14.6050 C   0  0  0  0  0  1  0  0  0  0  0  0
   21.7500  -35.9040  -15.0010 N   0  0  0  0  0  0  0  0  0  0  0  0
   21.9850  -35.3860  -13.7100 C   0  0  0  0  0  0  0  0  0  0  0  0
   21.4340  -36.0920  -12.2240 S   0  0  0  0  0  0  0  0  0  0  0  0
   22.0550  -34.7520  -11.3030 C   0  0  0  0  0  0  0  0  0  0  0  0
   21.8880  -34.7420   -9.8170 C   0  0  0  0  0  1  0  0  0  0  0  0
   22.6420  -33.7980  -12.1050 C   0  0  0  0  0  0  0  0  0  0  0  0
   23.1950  -32.5050  -11.5590 C   0  0  0  0  0  1  0  0  0  0  0  0
   22.6410  -34.1940  -13.4910 C   0  0  0  0  0  0  0  0  0  0  0  0
   23.2960  -33.3980  -14.5740 C   0  0  0  0  0  0  0  0  0  0  0  0
   24.6290  -32.8170  -14.3240 C   0  0  0  0  0  0  0  0  0  0  0  0
   25.6430  -33.6010  -13.7350 C   0  0  0  0  0  3  0  0  0  0  0  0
   26.9080  -33.0400  -13.4750 C   0  0  0  0  0  3  0  0  0  0  0  0
   27.1560  -31.6940  -13.7910 C   0  0  0  0  0  0  0  0  0  0  0  0
   28.6970  -30.9910  -13.4770 Cl  0  0  0  0  0  0  0  0  0  0  0  0
   26.1390  -30.9110  -14.3550 C   0  0  0  0  0  3  0  0  0  0  0  0
   24.8820  -31.4680  -14.6420 C   0  0  0  0  0  3  0  0  0  0  0  0
   25.9170  -24.7220  -15.4620 N   0  0  0  0  0  0  0  0  0  0  0  0
   26.7110  -25.3910  -14.6420 C   0  0  0  0  0  0  0  0  0  0  0  0
   27.1690  -24.8640  -13.6180 O   0  0  0  0  0  0  0  0  0  0  0  0
   25.7720  -25.1290  -16.3700 H   0  0  0  0  0  0  0  0  0  0  0  0
   25.0190  -23.6210  -15.1940 C   0  0  0  0  0  3  0  0  0  0  0  0
   21.9000  -23.9580  -12.8250 C   0  0  0  0  0  3  0  0  0  0  0  0
   21.4480  -22.7470  -11.9930 C   0  0  0  0  0  2  0  0  0  0  0  0
   22.7190  -21.9610  -11.7540 C   0  0  0  0  0  3  0  0  0  0  0  0
   23.5950  -22.2460  -12.9740 C   0  0  0  0  0  2  0  0  0  0  0  0
   23.1070  -23.5070  -13.5450 N   0  0  0  0  0  0  0  0  0  0  0  0
   23.7540  -24.2170  -14.5020 C   0  0  0  0  0  0  0  0  0  0  0  0
   23.4050  -25.3650  -14.8160 O   0  0  0  0  0  0  0  0  0  0  0  0
   19.9350  -25.3590  -13.1750 N   0  0  0  0  0  0  0  0  0  0  0  0
   20.7340  -24.4310  -13.7090 C   0  0  0  0  0  0  0  0  0  0  0  0
   20.5350  -23.9250  -14.8170 O   0  0  0  0  0  0  0  0  0  0  0  0
   20.1810  -25.7320  -12.2680 H   0  0  0  0  0  0  0  0  0  0  0  0
   18.6690  -25.8050  -13.7420 C   0  0  0  0  0  2  0  0  0  0  0  0
   15.3200  -23.2400  -12.6690 C   0  0  0  0  0  0  0  0  0  0  0  0
   16.3650  -23.4610  -11.7480 C   0  0  0  0  0  3  0  0  0  0  0  0
   17.4500  -24.2850  -12.0930 C   0  0  0  0  0  3  0  0  0  0  0  0
   15.3730  -23.8480  -13.9410 C   0  0  0  0  0  3  0  0  0  0  0  0
   16.4620  -24.6730  -14.2850 C   0  0  0  0  0  3  0  0  0  0  0  0
   17.5050  -24.8980  -13.3640 C   0  0  0  0  0  0  0  0  0  0  0  0
   12.1850  -23.7490  -13.2420 C   0  0  0  0  0  1  0  0  0  0  0  0
   12.8490  -22.6040  -12.5020 C   0  0  0  0  0  0  0  0  0  0  0  0
   12.0350  -21.6480  -11.9270 N   0  0  0  0  0  0  0  0  0  0  0  0
   12.6820  -20.6930  -11.0360 C   0  0  0  0  0  2  0  0  0  0  0  0
   14.4480  -20.9530  -11.3610 S   0  0  0  0  0  0  0  0  0  0  0  0
   14.1550  -22.4360  -12.2570 C   0  0  0  0  0  0  0  0  0  0  0  0
   11.0210  -21.7060  -11.9330 H   0  0  0  0  0  0  0  0  0  0  0  0
   23.3810  -22.4360  -10.5910 O   0  0  0  0  0  0  0  0  0  0  0  0
   23.5800  -23.3580  -10.7120 H   0  0  0  0  0  0  0  0  0  0  0  0
   24.7410  -22.9680  -16.5950 C   0  0  1  0  0  0  0  0  0  0  0  0
   26.0490  -22.3180  -17.1070 C   0  0  0  0  0  1  0  0  0  0  0  0
   24.2630  -23.9840  -17.6640 C   0  0  0  0  0  1  0  0  0  0  0  0
   23.6860  -21.8510  -16.4980 C   0  0  0  0  0  1  0  0  0  0  0  0
  1  2  1  0
  2 43  1  0
  3  1  2  0
  4  1  1  0
  4  7  1  0
  5  3  1  0
  6  3  1  0
  8  9  1  0
  8 11  1  0
  8 10  1  0
 10 12  1  0
 11  4  1  0
 13 11  1  0
 14 15  2  0
 16 14  1  0
 16 10  1  0
 17 16  1  0
 18 14  1  0
 19 18  1  0
 19 20  1  0
 20 34  2  0
 21 19  1  0
 21 26  1  0
 22 23  1  0
 22 21  2  0
 23 24  2  0
 24 26  1  0
 24 25  1  0
 26 27  1  0
 27 33  2  0
 27 28  1  0
 28 29  1  0
 29 30  1  0
 31 32  1  0
 31 29  2  0
 33 31  1  0
 34 35  1  0
 34 33  1  0
 35 36  1  0
 36 37  2  0
 38 39  1  0
 38 37  1  0
 40 38  2  0
 41 40  1  0
 41 35  2  0
 42 46  1  0
 42 43  1  0
 43 44  2  0
 45 42  1  0
 46 52  1  0
 47 55  1  0
 47 48  1  0
 48 49  1  0
 49 72  1  0
 50 49  1  0
 51 50  1  0
 51 47  1  0
 52 51  1  0
 53 52  2  0
 54 57  1  0
 55 54  1  0
 56 55  2  0
 58 64  1  0
 58 54  1  0
 59 70  1  0
 59 60  1  0
 61 60  2  0
 62 59  2  0
 63 62  1  0
 63 64  2  0
 64 61  1  0
 65 66  1  0
 66 70  2  0
 66 67  1  0
 67 68  1  0
 69 68  1  0
 70 69  1  0
 71 67  1  0
 73 72  1  0
 74 77  1  1
 74 46  1  0
 75 74  1  0
 76 74  1  0
M  ISO  4   2 101  14 100  16 100  43 101
M  END
>  <TORSDO>  (79) 
F 14

>  <SCORE>  (79) 
-14.791

>  <name>  (79) 
78

>  <ligand_id>  (79) 
78

>  <original_smiles>  (79) 
[H]OC1([H])C([H])([H])N(C(=O)C([H])(N([H])C(=O)N=C(N([H])[H])N([H])[N+]([H])=C(N([H])N([H])C(=O)C([H])([H])C2([H])N=C(c3c([H])c([H])c(Cl)c([H])c3[H])c3c(sc(C([H])([H])[H])c3C([H])([H])[H])-n3c(C([H])([H])[H])nnc32)C([H])([H])[H])C(C([H])([H])[H])(C([H])([H])[H])C([H])([H])[H])C([H])(C(=O)N([H])C([H])([H])c2c([H])c([H])c(C3=C(C([H])([H])[H])N([H])C([H])([H])S3)c([H])c2[H])C1([H])[H]

>  <smiles>  (79) 
[H]OC1([H])C([H])([H])N(C(=O)C([H])(N([H])C(=O)N=C(N([H])[H])N([H])[N+]([H])=C(N([H])N([H])C(=O)C([H])([H])C2([H])N=C(c3c([H])c([H])c(Cl)c([H])c3[H])c3c(sc(C([H])([H])[H])c3C([H])([H])[H])-n3c(C([H])([H])[H])nnc32)C([H])([H])[H])C(C([H])([H])[H])(C([H])([H])[H])C([H])([H])[H])C([H])(C(=O)N([H])C([H])([H])c2c([H])c([H])c(C3=C(C([H])([H])[H])N([H])C([H])([H])S3)c([H])c2[H])C1([H])[H]

$$$$
79:0:0
     RDKit          3D

 77 85  0  0  1  0  0  0  0  0999 V2000
   24.2650  -26.6310  -16.4900 C   0  0  0  0  0  2  0  0  0  0  0  0
   25.3570  -27.2300  -15.9900 C   0  0  0  0  0  3  0  0  0  0  0  0
   23.0970  -27.4130  -16.1830 C   0  0  0  0  0  0  0  0  0  0  0  0
   23.5690  -28.5370  -15.3190 C   0  0  0  0  0  2  0  0  0  0  0  0
   24.9980  -28.7170  -15.8440 C   0  0  0  0  0  3  0  0  0  0  0  0
   21.9310  -27.2400  -16.5440 O   0  0  0  0  0  0  0  0  0  0  0  0
   25.2680  -31.0920  -16.8330 C   0  0  0  0  0  2  0  0  0  0  0  0
   23.6080  -29.8970  -17.9660 C   0  0  0  0  0  2  0  0  0  0  0  0
   24.9440  -29.6320  -17.1570 C   0  0  0  0  0  3  0  0  0  0  0  0
   23.9300  -31.8130  -16.5530 C   0  0  0  0  0  3  0  0  0  0  0  0
   22.8140  -31.1240  -17.3910 C   0  0  0  0  0  3  0  0  0  0  0  0
   24.0780  -33.3260  -16.7850 C   0  0  0  0  0  1  0  0  0  0  0  0
   20.4320  -31.3080  -16.1990 C   0  0  0  0  0  0  0  0  0  0  0  0
   19.6650  -30.6690  -15.4720 O   0  0  0  0  0  0  0  0  0  0  0  0
   21.5570  -30.7000  -16.6850 N   0  0  0  0  0  0  0  0  0  0  0  0
   21.5680  -29.7160  -16.4500 H   0  0  0  0  0  0  0  0  0  0  0  0
   20.1420  -32.8110  -16.3900 C   0  0  0  0  0  2  0  0  0  0  0  0
   20.6420  -33.6450  -15.1690 C   0  0  0  0  0  3  0  0  0  0  0  0
   22.0020  -33.2170  -14.8630 N   0  0  0  0  0  0  0  0  0  0  0  0
   20.6310  -35.1530  -15.3550 C   0  0  0  0  0  0  0  0  0  0  0  0
   20.3210  -35.8190  -16.4740 N   0  0  0  0  0  0  0  0  0  0  0  0
   20.5580  -37.1530  -16.1950 N   0  0  0  0  0  0  0  0  0  0  0  0
   20.9960  -37.1880  -14.9330 C   0  0  0  0  0  0  0  0  0  0  0  0
   21.4360  -38.4470  -14.2470 C   0  0  0  0  0  1  0  0  0  0  0  0
   21.0260  -35.9700  -14.3530 N   0  0  0  0  0  0  0  0  0  0  0  0
   21.3760  -35.5900  -13.0390 C   0  0  0  0  0  0  0  0  0  0  0  0
   20.9580  -36.4430  -11.5890 S   0  0  0  0  0  0  0  0  0  0  0  0
   21.6730  -35.2030  -10.5950 C   0  0  0  0  0  0  0  0  0  0  0  0
   21.6480  -35.3400   -9.1080 C   0  0  0  0  0  1  0  0  0  0  0  0
   22.1900  -34.1710  -11.3460 C   0  0  0  0  0  0  0  0  0  0  0  0
   22.7980  -32.9380  -10.7260 C   0  0  0  0  0  1  0  0  0  0  0  0
   22.0570  -34.4290  -12.7550 C   0  0  0  0  0  0  0  0  0  0  0  0
   22.6210  -33.5390  -13.7960 C   0  0  0  0  0  0  0  0  0  0  0  0
   23.9830  -33.0060  -13.6030 C   0  0  0  0  0  0  0  0  0  0  0  0
   25.0950  -33.8510  -13.4330 C   0  0  0  0  0  3  0  0  0  0  0  0
   26.3760  -33.2960  -13.2320 C   0  0  0  0  0  3  0  0  0  0  0  0
   26.5470  -31.9000  -13.1900 C   0  0  0  0  0  0  0  0  0  0  0  0
   28.1080  -31.2060  -12.9680 Cl  0  0  0  0  0  0  0  0  0  0  0  0
   25.4250  -31.0700  -13.2680 C   0  0  0  0  0  3  0  0  0  0  0  0
   24.1540  -31.6270  -13.4840 C   0  0  0  0  0  3  0  0  0  0  0  0
   26.3970  -26.6420  -15.1710 O   0  0  0  0  0  0  0  0  0  0  0  0
   25.6080  -24.5200  -15.3770 N   0  0  0  0  0  0  0  0  0  0  0  0
   26.4100  -25.2770  -14.6000 C   0  0  0  0  0  0  0  0  0  0  0  0
   27.0130  -24.8120  -13.6090 O   0  0  0  0  0  0  0  0  0  0  0  0
   25.3680  -24.9980  -16.2320 H   0  0  0  0  0  0  0  0  0  0  0  0
   24.6790  -23.4610  -15.0610 C   0  0  0  0  0  3  0  0  0  0  0  0
   21.6000  -23.6860  -12.5980 C   0  0  0  0  0  3  0  0  0  0  0  0
   21.1220  -22.4360  -11.8520 C   0  0  0  0  0  2  0  0  0  0  0  0
   22.3780  -21.6060  -11.6760 C   0  0  0  0  0  3  0  0  0  0  0  0
   23.2450  -21.9310  -12.8910 C   0  0  0  0  0  2  0  0  0  0  0  0
   22.7860  -23.2350  -13.3610 N   0  0  0  0  0  0  0  0  0  0  0  0
   23.4520  -24.0100  -14.2380 C   0  0  0  0  0  0  0  0  0  0  0  0
   23.1160  -25.1880  -14.3310 O   0  0  0  0  0  0  0  0  0  0  0  0
   19.6650  -25.1650  -12.8270 N   0  0  0  0  0  0  0  0  0  0  0  0
   20.4390  -24.2600  -13.4360 C   0  0  0  0  0  0  0  0  0  0  0  0
   20.2230  -23.8530  -14.5800 O   0  0  0  0  0  0  0  0  0  0  0  0
   19.9260  -25.4610  -11.8960 H   0  0  0  0  0  0  0  0  0  0  0  0
   18.4070  -25.6840  -13.3500 C   0  0  0  0  0  2  0  0  0  0  0  0
   15.0130  -23.0990  -12.4760 C   0  0  0  0  0  0  0  0  0  0  0  0
   16.0300  -23.2830  -11.5170 C   0  0  0  0  0  3  0  0  0  0  0  0
   17.1270  -24.1160  -11.7970 C   0  0  0  0  0  3  0  0  0  0  0  0
   15.1080  -23.7550  -13.7220 C   0  0  0  0  0  3  0  0  0  0  0  0
   16.2090  -24.5880  -14.0020 C   0  0  0  0  0  3  0  0  0  0  0  0
   17.2240  -24.7740  -13.0410 C   0  0  0  0  0  0  0  0  0  0  0  0
   11.9120  -23.5720  -13.2330 C   0  0  0  0  0  1  0  0  0  0  0  0
   12.5430  -22.4380  -12.4510 C   0  0  0  0  0  0  0  0  0  0  0  0
   11.7080  -21.4760  -11.9200 N   0  0  0  0  0  0  0  0  0  0  0  0
   12.3120  -20.5310  -10.9870 C   0  0  0  0  0  2  0  0  0  0  0  0
   14.0900  -20.8070  -11.2130 S   0  0  0  0  0  0  0  0  0  0  0  0
   13.8350  -22.2840  -12.1300 C   0  0  0  0  0  0  0  0  0  0  0  0
   10.6960  -21.5220  -11.9840 H   0  0  0  0  0  0  0  0  0  0  0  0
   23.0690  -22.0020  -10.5030 O   0  0  0  0  0  0  0  0  0  0  0  0
   23.2900  -22.9240  -10.5790 H   0  0  0  0  0  0  0  0  0  0  0  0
   24.3760  -22.8220  -16.4750 C   0  0  1  0  0  0  0  0  0  0  0  0
   25.6950  -22.2320  -17.0320 C   0  0  0  0  0  1  0  0  0  0  0  0
   23.8410  -23.7570  -17.5900 C   0  0  0  0  0  1  0  0  0  0  0  0
   23.3530  -21.6870  -16.3670 C   0  0  0  0  0  1  0  0  0  0  0  0
  1  3  1  0
  1  2  1  0
  2  5  1  0
  2 41  1  0
  3  4  1  0
  5  4  1  0
  6  3  2  0
  7 10  1  0
  8 11  1  0
  9  8  1  0
  9  7  1  0
  9  5  1  0
 10 12  1  0
 11 15  1  0
 11 10  1  0
 13 14  2  0
 15 16  1  0
 15 13  1  0
 17 13  1  0
 18 17  1  0
 18 19  1  0
 19 33  2  0
 20 18  1  0
 20 25  1  0
 21 22  1  0
 21 20  2  0
 22 23  2  0
 23 25  1  0
 23 24  1  0
 25 26  1  0
 26 32  2  0
 26 27  1  0
 27 28  1  0
 28 29  1  0
 30 31  1  0
 30 28  2  0
 32 30  1  0
 33 34  1  0
 33 32  1  0
 34 40  2  0
 34 35  1  0
 35 36  2  0
 36 37  1  0
 37 38  1  0
 39 37  2  0
 40 39  1  0
 41 43  1  0
 42 46  1  0
 42 43  1  0
 43 44  2  0
 45 42  1  0
 46 52  1  0
 47 55  1  0
 47 48  1  0
 48 49  1  0
 49 72  1  0
 50 49  1  0
 51 50  1  0
 51 47  1  0
 52 51  1  0
 53 52  2  0
 54 57  1  0
 55 54  1  0
 56 55  2  0
 58 64  1  0
 58 54  1  0
 59 70  1  0
 59 60  1  0
 61 60  2  0
 62 59  2  0
 63 62  1  0
 63 64  2  0
 64 61  1  0
 65 66  1  0
 66 70  2  0
 66 67  1  0
 67 68  1  0
 69 68  1  0
 70 69  1  0
 71 67  1  0
 73 72  1  0
 74 77  1  1
 74 46  1  0
 75 74  1  0
 76 74  1  0
M  ISO  4  13 100  15 100  41 101  43 101
M  END
>  <TORSDO>  (80) 
F 15

>  <SCORE>  (80) 
-5.946

>  <name>  (80) 
79

>  <ligand_id>  (80) 
79

>  <original_smiles>  (80) 
[H]OC1([H])C([H])([H])N(C(=O)C([H])(N([H])C(=O)OC2=C([H])C(=O)C([H])([H])C2([H])C2([H])C([H])([H])C([H])(N([H])C(=O)C([H])([H])C3([H])N=C(c4c([H])c([H])c(Cl)c([H])c4[H])c4c(sc(C([H])([H])[H])c4C([H])([H])[H])-n4c(C([H])([H])[H])nnc43)C([H])(C([H])([H])[H])C2([H])[H])C(C([H])([H])[H])(C([H])([H])[H])C([H])([H])[H])C([H])(C(=O)N([H])C([H])([H])c2c([H])c([H])c(C3=C(C([H])([H])[H])N([H])C([H])([H])S3)c([H])c2[H])C1([H])[H]

>  <smiles>  (80) 
[H]OC1([H])C([H])([H])N(C(=O)C([H])(N([H])C(=O)OC2=C([H])C(=O)C([H])([H])C2([H])C2([H])C([H])([H])C([H])(N([H])C(=O)C([H])([H])C3([H])N=C(c4c([H])c([H])c(Cl)c([H])c4[H])c4c(sc(C([H])([H])[H])c4C([H])([H])[H])-n4c(C([H])([H])[H])nnc43)C([H])(C([H])([H])[H])C2([H])[H])C(C([H])([H])[H])(C([H])([H])[H])C([H])([H])[H])C([H])(C(=O)N([H])C([H])([H])c2c([H])c([H])c(C3=C(C([H])([H])[H])N([H])C([H])([H])S3)c([H])c2[H])C1([H])[H]

$$$$
80:0:0
     RDKit          3D

 77 83  0  0  1  0  0  0  0  0999 V2000
   24.5530  -27.8850  -15.7640 C   0  0  0  0  0  0  0  0  0  0  0  0
   24.0050  -28.1180  -14.5600 N   0  0  0  0  0  4  0  0  0  0  0  0
   25.8040  -27.3470  -15.8790 N   0  0  0  0  0  0  0  0  0  0  0  0
   23.0170  -28.2980  -14.4760 H   0  0  0  0  0  0  0  0  0  0  0  0
   24.5040  -27.8970  -13.7130 H   0  0  0  0  0  0  0  0  0  0  0  0
   26.2590  -27.3230  -16.7850 H   0  0  0  0  0  0  0  0  0  0  0  0
   25.8600  -24.7530  -15.6390 N   0  0  0  0  0  0  0  0  0  0  0  0
   26.5830  -25.3640  -14.7020 C   0  0  0  0  0  0  0  0  0  0  0  0
   27.1360  -24.7420  -13.7860 O   0  0  0  0  0  0  0  0  0  0  0  0
   26.5050  -26.7180  -14.7920 N   0  0  0  0  0  0  0  0  0  0  0  0
   25.5810  -25.3230  -16.4140 H   0  0  0  0  0  0  0  0  0  0  0  0
   26.9570  -27.4080  -14.2080 H   0  0  0  0  0  0  0  0  0  0  0  0
   24.9310  -23.6530  -15.4280 C   0  0  0  0  0  3  0  0  0  0  0  0
   21.8780  -23.9650  -12.9560 C   0  0  0  0  0  3  0  0  0  0  0  0
   21.4560  -22.7530  -12.1110 C   0  0  0  0  0  2  0  0  0  0  0  0
   22.7360  -21.9690  -11.9140 C   0  0  0  0  0  3  0  0  0  0  0  0
   23.5720  -22.2570  -13.1610 C   0  0  0  0  0  2  0  0  0  0  0  0
   23.0630  -23.5150  -13.7160 N   0  0  0  0  0  0  0  0  0  0  0  0
   23.6740  -24.2240  -14.6960 C   0  0  0  0  0  0  0  0  0  0  0  0
   23.2800  -25.3510  -15.0160 O   0  0  0  0  0  0  0  0  0  0  0  0
   19.8950  -25.3600  -13.2200 N   0  0  0  0  0  0  0  0  0  0  0  0
   20.6810  -24.4430  -13.7950 C   0  0  0  0  0  0  0  0  0  0  0  0
   20.4480  -23.9510  -14.9000 O   0  0  0  0  0  0  0  0  0  0  0  0
   20.1660  -25.7170  -12.3150 H   0  0  0  0  0  0  0  0  0  0  0  0
   18.6110  -25.8090  -13.7450 C   0  0  0  0  0  2  0  0  0  0  0  0
   15.3120  -23.1850  -12.6570 C   0  0  0  0  0  0  0  0  0  0  0  0
   16.3710  -23.4030  -11.7520 C   0  0  0  0  0  3  0  0  0  0  0  0
   17.4390  -24.2470  -12.1020 C   0  0  0  0  0  3  0  0  0  0  0  0
   15.3340  -23.8180  -13.9170 C   0  0  0  0  0  3  0  0  0  0  0  0
   16.4060  -24.6620  -14.2670 C   0  0  0  0  0  3  0  0  0  0  0  0
   17.4630  -24.8830  -13.3620 C   0  0  0  0  0  0  0  0  0  0  0  0
   12.1640  -23.6500  -13.1850 C   0  0  0  0  0  1  0  0  0  0  0  0
   12.8540  -22.5090  -12.4640 C   0  0  0  0  0  0  0  0  0  0  0  0
   12.0640  -21.5370  -11.8890 N   0  0  0  0  0  0  0  0  0  0  0  0
   12.7360  -20.5840  -11.0140 C   0  0  0  0  0  2  0  0  0  0  0  0
   14.4920  -20.8710  -11.3620 S   0  0  0  0  0  0  0  0  0  0  0  0
   14.1660  -22.3590  -12.2370 C   0  0  0  0  0  0  0  0  0  0  0  0
   11.0490  -21.5800  -11.8800 H   0  0  0  0  0  0  0  0  0  0  0  0
   23.4300  -22.4390  -10.7690 O   0  0  0  0  0  0  0  0  0  0  0  0
   23.6140  -23.3660  -10.8870 H   0  0  0  0  0  0  0  0  0  0  0  0
   24.6170  -23.0550  -16.8440 C   0  0  1  0  0  0  0  0  0  0  0  0
   25.8980  -22.3960  -17.4060 C   0  0  0  0  0  1  0  0  0  0  0  0
   24.1410  -24.1130  -17.8720 C   0  0  0  0  0  1  0  0  0  0  0  0
   23.5410  -21.9540  -16.7660 C   0  0  0  0  0  1  0  0  0  0  0  0
   23.7470  -28.1530  -17.0310 C   0  0  0  0  0  2  0  0  0  0  0  0
   20.8480  -31.5010  -17.3420 C   0  0  0  0  0  0  0  0  0  0  0  0
   20.3740  -30.9950  -16.3180 O   0  0  0  0  0  0  0  0  0  0  0  0
   22.1910  -29.6360  -18.2340 C   0  0  0  0  0  0  0  0  0  0  0  0
   21.1720  -31.2690  -19.7160 C   0  0  0  0  0  1  0  0  0  0  0  0
   22.7820  -29.2880  -17.0600 N   0  0  0  0  0  0  0  0  0  0  0  0
   21.4220  -30.7720  -18.3420 N   0  0  0  0  0  0  0  0  0  0  0  0
   22.4340  -28.9510  -19.2330 O   0  0  0  0  0  0  0  0  0  0  0  0
   22.5980  -29.8110  -16.2180 H   0  0  0  0  0  0  0  0  0  0  0  0
   20.8790  -33.0470  -17.4600 C   0  0  0  0  0  2  0  0  0  0  0  0
   21.3780  -33.7360  -16.1660 C   0  0  0  0  0  3  0  0  0  0  0  0
   22.7220  -33.2530  -15.8480 N   0  0  0  0  0  0  0  0  0  0  0  0
   21.3850  -35.2560  -16.2230 C   0  0  0  0  0  0  0  0  0  0  0  0
   21.1780  -36.0240  -17.2990 N   0  0  0  0  0  0  0  0  0  0  0  0
   21.3740  -37.3260  -16.8770 N   0  0  0  0  0  0  0  0  0  0  0  0
   21.6980  -37.2440  -15.5840 C   0  0  0  0  0  0  0  0  0  0  0  0
   22.0550  -38.4340  -14.7460 C   0  0  0  0  0  1  0  0  0  0  0  0
   21.6950  -35.9740  -15.1240 N   0  0  0  0  0  0  0  0  0  0  0  0
   21.9390  -35.4620  -13.8350 C   0  0  0  0  0  0  0  0  0  0  0  0
   21.3800  -36.1680  -12.3510 S   0  0  0  0  0  0  0  0  0  0  0  0
   22.0140  -34.8340  -11.4280 C   0  0  0  0  0  0  0  0  0  0  0  0
   21.8500  -34.8280   -9.9420 C   0  0  0  0  0  1  0  0  0  0  0  0
   22.6080  -33.8830  -12.2300 C   0  0  0  0  0  0  0  0  0  0  0  0
   23.1710  -32.5980  -11.6780 C   0  0  0  0  0  1  0  0  0  0  0  0
   22.6000  -34.2720  -13.6180 C   0  0  0  0  0  0  0  0  0  0  0  0
   23.2520  -33.4700  -14.7020 C   0  0  0  0  0  0  0  0  0  0  0  0
   24.5960  -32.9040  -14.4560 C   0  0  0  0  0  0  0  0  0  0  0  0
   25.5790  -33.6720  -13.7980 C   0  0  0  0  0  3  0  0  0  0  0  0
   26.8480  -33.1200  -13.5370 C   0  0  0  0  0  3  0  0  0  0  0  0
   27.1370  -31.8010  -13.9330 C   0  0  0  0  0  0  0  0  0  0  0  0
   28.6860  -31.1160  -13.6110 Cl  0  0  0  0  0  0  0  0  0  0  0  0
   26.1630  -31.0380  -14.5970 C   0  0  0  0  0  3  0  0  0  0  0  0
   24.8950  -31.5860  -14.8600 C   0  0  0  0  0  3  0  0  0  0  0  0
  1  2  2  0
  2  4  1  0
  2  5  1  0
  3  1  1  0
  3 10  1  0
  6  3  1  0
  7 13  1  0
  7  8  1  0
  8  9  2  0
 10  8  1  0
 10 12  1  0
 11  7  1  0
 13 19  1  0
 14 22  1  0
 14 15  1  0
 15 16  1  0
 16 39  1  0
 17 16  1  0
 18 17  1  0
 18 14  1  0
 19 18  1  0
 20 19  2  0
 21 24  1  0
 22 21  1  0
 23 22  2  0
 25 31  1  0
 25 21  1  0
 26 37  1  0
 26 27  1  0
 28 27  2  0
 29 26  2  0
 30 29  1  0
 30 31  2  0
 31 28  1  0
 32 33  1  0
 33 37  2  0
 33 34  1  0
 34 38  1  0
 34 35  1  0
 36 35  1  0
 37 36  1  0
 40 39  1  0
 41 44  1  1
 41 13  1  0
 42 41  1  0
 43 41  1  0
 45  1  1  0
 46 47  2  0
 48 50  1  0
 49 51  1  0
 50 45  1  0
 50 53  1  0
 51 48  1  0
 51 46  1  0
 52 48  2  0
 54 46  1  0
 55 54  1  0
 55 56  1  0
 56 70  2  0
 57 55  1  0
 57 62  1  0
 58 59  1  0
 58 57  2  0
 59 60  2  0
 60 62  1  0
 60 61  1  0
 62 63  1  0
 63 69  2  0
 63 64  1  0
 64 65  1  0
 65 66  1  0
 67 68  1  0
 67 65  2  0
 69 67  1  0
 70 71  1  0
 70 69  1  0
 71 72  1  0
 72 73  2  0
 74 75  1  0
 74 73  1  0
 76 74  2  0
 77 76  1  0
 77 71  2  0
M  ISO  4   8 101  10 101  46 100  51 100
M  END
>  <TORSDO>  (81) 
F 14

>  <SCORE>  (81) 
-14.559

>  <name>  (81) 
80

>  <ligand_id>  (81) 
80

>  <original_smiles>  (81) 
[H]OC1([H])C([H])([H])N(C(=O)C([H])(N([H])C(=O)N([H])[N+]([H])=C(N([H])[H])C([H])([H])N([H])C(=O)N(C(=O)C([H])([H])C2([H])N=C(c3c([H])c([H])c(Cl)c([H])c3[H])c3c(sc(C([H])([H])[H])c3C([H])([H])[H])-n3c(C([H])([H])[H])nnc32)C([H])([H])[H])C(C([H])([H])[H])(C([H])([H])[H])C([H])([H])[H])C([H])(C(=O)N([H])C([H])([H])c2c([H])c([H])c(C3=C(C([H])([H])[H])N([H])C([H])([H])S3)c([H])c2[H])C1([H])[H]

>  <smiles>  (81) 
[H]OC1([H])C([H])([H])N(C(=O)C([H])(N([H])C(=O)N([H])[N+]([H])=C(N([H])[H])C([H])([H])N([H])C(=O)N(C(=O)C([H])([H])C2([H])N=C(c3c([H])c([H])c(Cl)c([H])c3[H])c3c(sc(C([H])([H])[H])c3C([H])([H])[H])-n3c(C([H])([H])[H])nnc32)C([H])([H])[H])C(C([H])([H])[H])(C([H])([H])[H])C([H])([H])[H])C([H])(C(=O)N([H])C([H])([H])c2c([H])c([H])c(C3=C(C([H])([H])[H])N([H])C([H])([H])S3)c([H])c2[H])C1([H])[H]

$$$$
81:0:0
     RDKit          3D

 73 80  0  0  1  0  0  0  0  0999 V2000
   26.7050  -26.6440  -15.0020 O   0  0  0  0  0  0  0  0  0  0  0  0
   25.8060  -24.6500  -15.4310 N   0  0  0  0  0  0  0  0  0  0  0  0
   26.6740  -25.3060  -14.6110 C   0  0  0  0  0  0  0  0  0  0  0  0
   27.1920  -24.8180  -13.5950 O   0  0  0  0  0  0  0  0  0  0  0  0
   25.4750  -25.1870  -16.2140 H   0  0  0  0  0  0  0  0  0  0  0  0
   24.9580  -23.5190  -15.1080 C   0  0  0  0  0  3  0  0  0  0  0  0
   21.8070  -23.7710  -12.7580 C   0  0  0  0  0  3  0  0  0  0  0  0
   21.3040  -22.5250  -12.0130 C   0  0  0  0  0  2  0  0  0  0  0  0
   22.5470  -21.6820  -11.8110 C   0  0  0  0  0  3  0  0  0  0  0  0
   23.4580  -22.0200  -12.9910 C   0  0  0  0  0  2  0  0  0  0  0  0
   23.0120  -23.3250  -13.4890 N   0  0  0  0  0  0  0  0  0  0  0  0
   23.6870  -24.0770  -14.3900 C   0  0  0  0  0  0  0  0  0  0  0  0
   23.3380  -25.2330  -14.6350 O   0  0  0  0  0  0  0  0  0  0  0  0
   19.9030  -25.2740  -13.0350 N   0  0  0  0  0  0  0  0  0  0  0  0
   20.6680  -24.3450  -13.6190 C   0  0  0  0  0  0  0  0  0  0  0  0
   20.4560  -23.9160  -14.7560 O   0  0  0  0  0  0  0  0  0  0  0  0
   20.1580  -25.5820  -12.1070 H   0  0  0  0  0  0  0  0  0  0  0  0
   18.6620  -25.8080  -13.5860 C   0  0  0  0  0  2  0  0  0  0  0  0
   15.1950  -23.3290  -12.6980 C   0  0  0  0  0  0  0  0  0  0  0  0
   16.2220  -23.4800  -11.7440 C   0  0  0  0  0  3  0  0  0  0  0  0
   17.3450  -24.2760  -12.0280 C   0  0  0  0  0  3  0  0  0  0  0  0
   15.3060  -23.9840  -13.9420 C   0  0  0  0  0  3  0  0  0  0  0  0
   16.4310  -24.7800  -14.2290 C   0  0  0  0  0  3  0  0  0  0  0  0
   17.4560  -24.9310  -13.2740 C   0  0  0  0  0  0  0  0  0  0  0  0
   12.1000  -23.9280  -13.4030 C   0  0  0  0  0  1  0  0  0  0  0  0
   12.7010  -22.7640  -12.6430 C   0  0  0  0  0  0  0  0  0  0  0  0
   11.8390  -21.8260  -12.1110 N   0  0  0  0  0  0  0  0  0  0  0  0
   12.4230  -20.8390  -11.2090 C   0  0  0  0  0  2  0  0  0  0  0  0
   14.2050  -21.0550  -11.4590 S   0  0  0  0  0  0  0  0  0  0  0  0
   13.9920  -22.5570  -12.3460 C   0  0  0  0  0  0  0  0  0  0  0  0
   10.8280  -21.9200  -12.1470 H   0  0  0  0  0  0  0  0  0  0  0  0
   23.1970  -22.0500  -10.6060 O   0  0  0  0  0  0  0  0  0  0  0  0
   23.4290  -22.9720  -10.6580 H   0  0  0  0  0  0  0  0  0  0  0  0
   24.6580  -22.8230  -16.4820 C   0  0  1  0  0  0  0  0  0  0  0  0
   25.9640  -22.1710  -16.9950 C   0  0  0  0  0  1  0  0  0  0  0  0
   24.1560  -23.8050  -17.5740 C   0  0  0  0  0  1  0  0  0  0  0  0
   23.6130  -21.7000  -16.3350 C   0  0  0  0  0  1  0  0  0  0  0  0
   26.4580  -27.0970  -16.3740 C   0  0  0  0  0  2  0  0  0  0  0  0
   20.4670  -30.8460  -16.5650 C   0  0  0  0  0  0  0  0  0  0  0  0
   19.6400  -30.5130  -15.7110 O   0  0  0  0  0  0  0  0  0  0  0  0
   25.0470  -27.6000  -16.8620 C   0  0  0  0  0  0  0  0  0  0  0  0
   23.9730  -27.9620  -15.8280 C   0  0  0  0  0  2  0  0  0  0  0  0
   23.1790  -29.5490  -18.8820 C   0  0  0  0  0  2  0  0  0  0  0  0
   23.6050  -28.0490  -18.8070 C   0  0  0  0  0  2  0  0  0  0  0  0
   22.7530  -30.3710  -17.6280 C   0  0  0  0  0  2  0  0  0  0  0  0
   21.6380  -28.7980  -15.9750 C   0  0  0  0  0  2  0  0  0  0  0  0
   24.8810  -27.7410  -18.1320 N   0  0  0  0  0  0  0  0  0  0  0  0
   21.5320  -29.9920  -16.8560 N   0  0  0  0  0  0  0  0  0  0  0  0
   22.6230  -27.8470  -16.3160 O   0  0  0  0  0  0  0  0  0  0  0  0
   20.3520  -32.3270  -17.0530 C   0  0  0  0  0  2  0  0  0  0  0  0
   20.8490  -33.2900  -15.9270 C   0  0  0  0  0  3  0  0  0  0  0  0
   22.2130  -32.8820  -15.6220 N   0  0  0  0  0  0  0  0  0  0  0  0
   20.8320  -34.7940  -16.2000 C   0  0  0  0  0  0  0  0  0  0  0  0
   20.5130  -35.4040  -17.3490 N   0  0  0  0  0  0  0  0  0  0  0  0
   20.7600  -36.7500  -17.1420 N   0  0  0  0  0  0  0  0  0  0  0  0
   21.2120  -36.8520  -15.8880 C   0  0  0  0  0  0  0  0  0  0  0  0
   21.6670  -38.1430  -15.2770 C   0  0  0  0  0  1  0  0  0  0  0  0
   21.2410  -35.6640  -15.2460 N   0  0  0  0  0  0  0  0  0  0  0  0
   21.6020  -35.3570  -13.9150 C   0  0  0  0  0  0  0  0  0  0  0  0
   21.2080  -36.2980  -12.5120 S   0  0  0  0  0  0  0  0  0  0  0  0
   21.9150  -35.1060  -11.4550 C   0  0  0  0  0  0  0  0  0  0  0  0
   21.9030  -35.3300   -9.9780 C   0  0  0  0  0  1  0  0  0  0  0  0
   22.4150  -34.0290  -12.1510 C   0  0  0  0  0  0  0  0  0  0  0  0
   23.0160  -32.8260  -11.4670 C   0  0  0  0  0  1  0  0  0  0  0  0
   22.2740  -34.2060  -13.5720 C   0  0  0  0  0  0  0  0  0  0  0  0
   22.8240  -33.2480  -14.5680 C   0  0  0  0  0  0  0  0  0  0  0  0
   24.1710  -32.6910  -14.3550 C   0  0  0  0  0  0  0  0  0  0  0  0
   25.2530  -33.5230  -14.0090 C   0  0  0  0  0  3  0  0  0  0  0  0
   26.5270  -32.9610  -13.8020 C   0  0  0  0  0  3  0  0  0  0  0  0
   26.7250  -31.5750  -13.9550 C   0  0  0  0  0  0  0  0  0  0  0  0
   28.2840  -30.8880  -13.7070 Cl  0  0  0  0  0  0  0  0  0  0  0  0
   25.6420  -30.7440  -14.2870 C   0  0  0  0  0  3  0  0  0  0  0  0
   24.3640  -31.3070  -14.4600 C   0  0  0  0  0  3  0  0  0  0  0  0
  1  3  1  0
  2  6  1  0
  2  3  1  0
  3  4  2  0
  5  2  1  0
  6 12  1  0
  7 15  1  0
  7  8  1  0
  8  9  1  0
  9 32  1  0
 10  9  1  0
 11 10  1  0
 11  7  1  0
 12 11  1  0
 13 12  2  0
 14 17  1  0
 15 14  1  0
 16 15  2  0
 18 24  1  0
 18 14  1  0
 19 30  1  0
 19 20  1  0
 21 20  2  0
 22 19  2  0
 23 22  1  0
 23 24  2  0
 24 21  1  0
 25 26  1  0
 26 30  2  0
 26 27  1  0
 27 28  1  0
 29 28  1  0
 30 29  1  0
 31 27  1  0
 33 32  1  0
 34 37  1  1
 34  6  1  0
 35 34  1  0
 36 34  1  0
 38  1  1  0
 39 40  2  0
 41 38  1  0
 41 42  1  0
 43 44  1  0
 43 45  1  0
 44 47  1  0
 45 48  1  0
 47 41  2  0
 48 39  1  0
 48 46  1  0
 49 46  1  0
 49 42  1  0
 50 39  1  0
 51 50  1  0
 51 52  1  0
 52 66  2  0
 53 51  1  0
 53 58  1  0
 54 55  1  0
 54 53  2  0
 55 56  2  0
 56 57  1  0
 56 58  1  0
 58 59  1  0
 59 65  2  0
 59 60  1  0
 60 61  1  0
 61 62  1  0
 63 64  1  0
 63 61  2  0
 65 63  1  0
 66 67  1  0
 66 65  1  0
 67 68  1  0
 68 69  2  0
 70 69  1  0
 70 71  1  0
 72 70  2  0
 73 67  2  0
 73 72  1  0
M  ISO  4   1 101   3 101  39 100  48 100
M  END
>  <TORSDO>  (82) 
F 14

>  <SCORE>  (82) 
-12.337

>  <name>  (82) 
81

>  <ligand_id>  (82) 
81

>  <original_smiles>  (82) 
[H]OC1([H])C([H])([H])N(C(=O)C([H])(N([H])C(=O)OC([H])([H])C2=NC([H])([H])C([H])([H])C([H])([H])N(C(=O)C([H])([H])C3([H])N=C(c4c([H])c([H])c(Cl)c([H])c4[H])c4c(sc(C([H])([H])[H])c4C([H])([H])[H])-n4c(C([H])([H])[H])nnc43)C([H])([H])OC2([H])[H])C(C([H])([H])[H])(C([H])([H])[H])C([H])([H])[H])C([H])(C(=O)N([H])C([H])([H])c2c([H])c([H])c(C3=C(C([H])([H])[H])N([H])C([H])([H])S3)c([H])c2[H])C1([H])[H]

>  <smiles>  (82) 
[H]OC1([H])C([H])([H])N(C(=O)C([H])(N([H])C(=O)OC([H])([H])C2=NC([H])([H])C([H])([H])C([H])([H])N(C(=O)C([H])([H])C3([H])N=C(c4c([H])c([H])c(Cl)c([H])c4[H])c4c(sc(C([H])([H])[H])c4C([H])([H])[H])-n4c(C([H])([H])[H])nnc43)C([H])([H])OC2([H])[H])C(C([H])([H])[H])(C([H])([H])[H])C([H])([H])[H])C([H])(C(=O)N([H])C([H])([H])c2c([H])c([H])c(C3=C(C([H])([H])[H])N([H])C([H])([H])S3)c([H])c2[H])C1([H])[H]

$$$$
82:0:0
     RDKit          3D

 76 83  0  0  1  0  0  0  0  0999 V2000
   27.4180  -26.7030  -16.3780 C   0  0  0  0  0  2  0  0  0  0  0  0
   25.9270  -24.6080  -15.3460 N   0  0  0  0  0  0  0  0  0  0  0  0
   26.9690  -24.9950  -14.6180 C   0  0  0  0  0  0  0  0  0  0  0  0
   27.4100  -24.3610  -13.6560 O   0  0  0  0  0  0  0  0  0  0  0  0
   27.3990  -26.2110  -14.9880 N   0  0  0  0  0  0  0  0  0  0  0  0
   25.6290  -25.2590  -16.0540 H   0  0  0  0  0  0  0  0  0  0  0  0
   28.0790  -26.6330  -14.3680 H   0  0  0  0  0  0  0  0  0  0  0  0
   25.0060  -23.5070  -15.1160 C   0  0  0  0  0  3  0  0  0  0  0  0
   21.8360  -23.8240  -12.8120 C   0  0  0  0  0  3  0  0  0  0  0  0
   21.3210  -22.5910  -12.0540 C   0  0  0  0  0  2  0  0  0  0  0  0
   22.5570  -21.7460  -11.8270 C   0  0  0  0  0  3  0  0  0  0  0  0
   23.4720  -22.0600  -13.0100 C   0  0  0  0  0  2  0  0  0  0  0  0
   23.0440  -23.3650  -13.5270 N   0  0  0  0  0  0  0  0  0  0  0  0
   23.7390  -24.1020  -14.4300 C   0  0  0  0  0  0  0  0  0  0  0  0
   23.4150  -25.2640  -14.6960 O   0  0  0  0  0  0  0  0  0  0  0  0
   19.9450  -25.3290  -13.1330 N   0  0  0  0  0  0  0  0  0  0  0  0
   20.7100  -24.3870  -13.6940 C   0  0  0  0  0  0  0  0  0  0  0  0
   20.5040  -23.9330  -14.8220 O   0  0  0  0  0  0  0  0  0  0  0  0
   20.1950  -25.6560  -12.2100 H   0  0  0  0  0  0  0  0  0  0  0  0
   18.7110  -25.8580  -13.7020 C   0  0  0  0  0  2  0  0  0  0  0  0
   15.2310  -23.4010  -12.8090 C   0  0  0  0  0  0  0  0  0  0  0  0
   16.2450  -23.5700  -11.8440 C   0  0  0  0  0  3  0  0  0  0  0  0
   17.3720  -24.3600  -12.1300 C   0  0  0  0  0  3  0  0  0  0  0  0
   15.3590  -24.0290  -14.0660 C   0  0  0  0  0  3  0  0  0  0  0  0
   16.4880  -24.8190  -14.3520 C   0  0  0  0  0  3  0  0  0  0  0  0
   17.5010  -24.9900  -13.3860 C   0  0  0  0  0  0  0  0  0  0  0  0
   12.1500  -23.9910  -13.5660 C   0  0  0  0  0  1  0  0  0  0  0  0
   12.7370  -22.8360  -12.7800 C   0  0  0  0  0  0  0  0  0  0  0  0
   11.8660  -21.9100  -12.2440 N   0  0  0  0  0  0  0  0  0  0  0  0
   12.4350  -20.9470  -11.3070 C   0  0  0  0  0  2  0  0  0  0  0  0
   14.2210  -21.1540  -11.5340 S   0  0  0  0  0  0  0  0  0  0  0  0
   14.0230  -22.6350  -12.4570 C   0  0  0  0  0  0  0  0  0  0  0  0
   10.8560  -21.9940  -12.3090 H   0  0  0  0  0  0  0  0  0  0  0  0
   23.2060  -22.1360  -10.6270 O   0  0  0  0  0  0  0  0  0  0  0  0
   23.4450  -23.0540  -10.6990 H   0  0  0  0  0  0  0  0  0  0  0  0
   24.7160  -22.8470  -16.5150 C   0  0  1  0  0  0  0  0  0  0  0  0
   26.0200  -22.1960  -17.0370 C   0  0  0  0  0  1  0  0  0  0  0  0
   24.2280  -23.8540  -17.5880 C   0  0  0  0  0  1  0  0  0  0  0  0
   23.6650  -21.7220  -16.4050 C   0  0  0  0  0  1  0  0  0  0  0  0
   26.2940  -27.6890  -16.8010 C   0  0  0  0  0  2  0  0  0  0  0  0
   24.8780  -27.5610  -16.1670 C   0  0  0  0  0  2  0  0  0  0  0  0
   22.6060  -29.0260  -18.8840 C   0  0  0  0  0  0  0  0  0  0  0  0
   22.3690  -28.2840  -16.6490 C   0  0  0  0  0  0  0  0  0  0  0  0
   23.9560  -28.4590  -18.4700 C   0  0  0  0  0  2  0  0  0  0  0  0
   21.5270  -28.7850  -17.8390 C   0  0  0  0  0  3  0  0  0  0  0  0
   23.6900  -27.6790  -17.1690 C   0  0  0  0  0  3  0  0  0  0  0  0
   22.4450  -29.6360  -19.9460 O   0  0  0  0  0  0  0  0  0  0  0  0
   22.0590  -28.2790  -15.4550 O   0  0  0  0  0  0  0  0  0  0  0  0
   20.2680  -30.7700  -16.7340 C   0  0  0  0  0  0  0  0  0  0  0  0
   19.9330  -30.3400  -15.6290 O   0  0  0  0  0  0  0  0  0  0  0  0
   20.7330  -30.0230  -17.7440 N   0  0  0  0  0  0  0  0  0  0  0  0
   20.8380  -30.5500  -18.6010 H   0  0  0  0  0  0  0  0  0  0  0  0
   20.2240  -32.2730  -17.0380 C   0  0  0  0  0  2  0  0  0  0  0  0
   20.8770  -33.1430  -15.9310 C   0  0  0  0  0  3  0  0  0  0  0  0
   22.2260  -32.6560  -15.6280 N   0  0  0  0  0  0  0  0  0  0  0  0
   20.9350  -34.6210  -16.2740 C   0  0  0  0  0  0  0  0  0  0  0  0
   20.6680  -35.1810  -17.4610 N   0  0  0  0  0  0  0  0  0  0  0  0
   20.9410  -36.5270  -17.3100 N   0  0  0  0  0  0  0  0  0  0  0  0
   21.3640  -36.6730  -16.0500 C   0  0  0  0  0  0  0  0  0  0  0  0
   21.8240  -37.9810  -15.4820 C   0  0  0  0  0  1  0  0  0  0  0  0
   21.3550  -35.5120  -15.3580 N   0  0  0  0  0  0  0  0  0  0  0  0
   21.6850  -35.2380  -14.0160 C   0  0  0  0  0  0  0  0  0  0  0  0
   21.2710  -36.2370  -12.6610 S   0  0  0  0  0  0  0  0  0  0  0  0
   21.9330  -35.0750  -11.5470 C   0  0  0  0  0  0  0  0  0  0  0  0
   21.8860  -35.3570  -10.0780 C   0  0  0  0  0  1  0  0  0  0  0  0
   22.4290  -33.9620  -12.1920 C   0  0  0  0  0  0  0  0  0  0  0  0
   22.9950  -32.7800  -11.4460 C   0  0  0  0  0  1  0  0  0  0  0  0
   22.3200  -34.0780  -13.6240 C   0  0  0  0  0  0  0  0  0  0  0  0
   22.8520  -33.0510  -14.5820 C   0  0  0  0  0  0  0  0  0  0  0  0
   24.1910  -32.4770  -14.3270 C   0  0  0  0  0  0  0  0  0  0  0  0
   25.2530  -33.3160  -13.9210 C   0  0  0  0  0  3  0  0  0  0  0  0
   26.5220  -32.7690  -13.6480 C   0  0  0  0  0  3  0  0  0  0  0  0
   26.7310  -31.3850  -13.7750 C   0  0  0  0  0  0  0  0  0  0  0  0
   28.2800  -30.7080  -13.4400 Cl  0  0  0  0  0  0  0  0  0  0  0  0
   25.6750  -30.5470  -14.1740 C   0  0  0  0  0  3  0  0  0  0  0  0
   24.4090  -31.0880  -14.4640 C   0  0  0  0  0  3  0  0  0  0  0  0
  1  5  1  0
  2  8  1  0
  2  3  1  0
  3  4  2  0
  5  3  1  0
  5  7  1  0
  6  2  1  0
  8 14  1  0
  9 17  1  0
  9 10  1  0
 10 11  1  0
 11 34  1  0
 12 11  1  0
 13 12  1  0
 13  9  1  0
 14 13  1  0
 15 14  2  0
 16 19  1  0
 17 16  1  0
 18 17  2  0
 20 26  1  0
 20 16  1  0
 21 32  1  0
 21 22  1  0
 23 22  2  0
 24 21  2  0
 25 24  1  0
 25 26  2  0
 26 23  1  0
 27 28  1  0
 28 32  2  0
 28 29  1  0
 29 30  1  0
 31 30  1  0
 32 31  1  0
 33 29  1  0
 35 34  1  0
 36 39  1  1
 36  8  1  0
 37 36  1  0
 38 36  1  0
 40  1  1  0
 40 41  1  0
 42 44  1  0
 42 45  1  0
 43 48  2  0
 44 46  1  0
 45 51  1  0
 45 43  1  0
 46 43  1  0
 46 41  1  0
 47 42  2  0
 49 50  2  0
 51 49  1  0
 52 51  1  0
 53 49  1  0
 54 53  1  0
 54 55  1  0
 55 69  2  0
 56 54  1  0
 56 61  1  0
 57 58  1  0
 57 56  2  0
 58 59  2  0
 59 60  1  0
 59 61  1  0
 61 62  1  0
 62 68  2  0
 62 63  1  0
 63 64  1  0
 64 65  1  0
 66 64  2  0
 66 67  1  0
 68 66  1  0
 69 70  1  0
 69 68  1  0
 70 71  1  0
 71 72  2  0
 73 72  1  0
 73 74  1  0
 75 73  2  0
 76 70  2  0
 76 75  1  0
M  ISO  4   3 101   5 101  49 100  51 100
M  END
>  <TORSDO>  (83) 
F 16

>  <SCORE>  (83) 
-12.842

>  <name>  (83) 
82

>  <ligand_id>  (83) 
82

>  <original_smiles>  (83) 
[H]OC1([H])C([H])([H])N(C(=O)C([H])(N([H])C(=O)N([H])C([H])([H])C([H])([H])C([H])([H])C2([H])C(=O)C([H])(N([H])C(=O)C([H])([H])C3([H])N=C(c4c([H])c([H])c(Cl)c([H])c4[H])c4c(sc(C([H])([H])[H])c4C([H])([H])[H])-n4c(C([H])([H])[H])nnc43)C(=O)C2([H])[H])C(C([H])([H])[H])(C([H])([H])[H])C([H])([H])[H])C([H])(C(=O)N([H])C([H])([H])c2c([H])c([H])c(C3=C(C([H])([H])[H])N([H])C([H])([H])S3)c([H])c2[H])C1([H])[H]

>  <smiles>  (83) 
[H]OC1([H])C([H])([H])N(C(=O)C([H])(N([H])C(=O)N([H])C([H])([H])C([H])([H])C([H])([H])C2([H])C(=O)C([H])(N([H])C(=O)C([H])([H])C3([H])N=C(c4c([H])c([H])c(Cl)c([H])c4[H])c4c(sc(C([H])([H])[H])c4C([H])([H])[H])-n4c(C([H])([H])[H])nnc43)C(=O)C2([H])[H])C(C([H])([H])[H])(C([H])([H])[H])C([H])([H])[H])C([H])(C(=O)N([H])C([H])([H])c2c([H])c([H])c(C3=C(C([H])([H])[H])N([H])C([H])([H])S3)c([H])c2[H])C1([H])[H]

$$$$
83:0:0
     RDKit          3D

 77 84  0  0  1  0  0  0  0  0999 V2000
   25.4010  -27.5230  -15.5570 C   0  0  0  0  0  3  0  0  0  0  0  0
   26.6080  -27.2070  -15.8930 N   0  0  0  0  0  0  0  0  0  0  0  0
   23.9520  -28.1460  -17.6600 C   0  0  0  0  0  3  0  0  0  0  0  0
   24.4500  -28.4490  -16.2490 C   0  0  0  0  0  3  0  0  0  0  0  0
   22.5040  -29.9410  -17.2870 C   0  0  0  0  0  3  0  0  0  0  0  0
   22.9780  -28.8390  -18.1470 N   0  0  0  0  0  0  0  0  0  0  0  0
   22.1810  -29.4390  -15.9420 N   0  0  0  0  0  0  0  0  0  0  0  0
   23.2280  -28.5240  -15.4170 N   0  0  0  0  0  4  0  0  0  0  0  0
   21.3910  -28.8100  -15.9830 H   0  0  0  0  0  0  0  0  0  0  0  0
   22.8020  -27.6080  -15.3690 H   0  0  0  0  0  0  0  0  0  0  0  0
   23.4370  -28.8110  -14.4730 H   0  0  0  0  0  0  0  0  0  0  0  0
   20.8040  -31.6510  -17.2150 C   0  0  0  0  0  0  0  0  0  0  0  0
   20.1090  -31.2340  -16.2870 O   0  0  0  0  0  0  0  0  0  0  0  0
   21.5330  -30.8030  -17.9640 N   0  0  0  0  0  0  0  0  0  0  0  0
   21.8550  -31.1750  -18.8460 H   0  0  0  0  0  0  0  0  0  0  0  0
   21.0480  -33.1640  -17.3560 C   0  0  0  0  0  2  0  0  0  0  0  0
   21.5160  -33.8010  -16.0050 C   0  0  0  0  0  3  0  0  0  0  0  0
   22.8390  -33.2770  -15.6380 N   0  0  0  0  0  0  0  0  0  0  0  0
   21.5360  -35.3240  -15.9990 C   0  0  0  0  0  0  0  0  0  0  0  0
   21.3540  -36.1290  -17.0520 N   0  0  0  0  0  0  0  0  0  0  0  0
   21.5560  -37.4130  -16.5860 N   0  0  0  0  0  0  0  0  0  0  0  0
   21.8480  -37.2860  -15.2870 C   0  0  0  0  0  0  0  0  0  0  0  0
   22.2170  -38.4460  -14.4060 C   0  0  0  0  0  1  0  0  0  0  0  0
   21.8180  -36.0010  -14.8670 N   0  0  0  0  0  0  0  0  0  0  0  0
   22.0230  -35.4520  -13.5880 C   0  0  0  0  0  0  0  0  0  0  0  0
   21.4460  -36.1250  -12.0950 S   0  0  0  0  0  0  0  0  0  0  0  0
   22.0460  -34.7650  -11.1890 C   0  0  0  0  0  0  0  0  0  0  0  0
   21.8520  -34.7320   -9.7050 C   0  0  0  0  0  1  0  0  0  0  0  0
   22.6490  -33.8290  -12.0060 C   0  0  0  0  0  0  0  0  0  0  0  0
   23.2010  -32.5330  -11.4790 C   0  0  0  0  0  1  0  0  0  0  0  0
   22.6700  -34.2510  -13.3850 C   0  0  0  0  0  0  0  0  0  0  0  0
   23.3460  -33.4760  -14.4720 C   0  0  0  0  0  0  0  0  0  0  0  0
   24.6850  -32.9110  -14.1980 C   0  0  0  0  0  0  0  0  0  0  0  0
   25.6900  -33.6900  -13.5900 C   0  0  0  0  0  3  0  0  0  0  0  0
   26.9510  -33.1190  -13.3030 C   0  0  0  0  0  3  0  0  0  0  0  0
   27.2110  -31.7780  -13.6340 C   0  0  0  0  0  0  0  0  0  0  0  0
   28.7450  -31.0600  -13.3030 Cl  0  0  0  0  0  0  0  0  0  0  0  0
   26.2120  -31.0090  -14.2400 C   0  0  0  0  0  3  0  0  0  0  0  0
   24.9550  -31.5740  -14.5230 C   0  0  0  0  0  3  0  0  0  0  0  0
   25.9340  -24.6430  -15.4950 N   0  0  0  0  0  0  0  0  0  0  0  0
   26.8530  -25.1080  -14.6530 C   0  0  0  0  0  0  0  0  0  0  0  0
   27.2070  -24.5340  -13.6220 O   0  0  0  0  0  0  0  0  0  0  0  0
   27.2830  -26.3290  -15.0480 N   0  0  0  0  0  0  0  0  0  0  0  0
   25.8230  -25.1920  -16.3320 H   0  0  0  0  0  0  0  0  0  0  0  0
   28.0950  -26.7240  -14.5840 H   0  0  0  0  0  0  0  0  0  0  0  0
   24.9430  -23.6020  -15.3230 C   0  0  0  0  0  3  0  0  0  0  0  0
   21.8840  -23.9560  -12.8870 C   0  0  0  0  0  3  0  0  0  0  0  0
   21.4510  -22.7420  -12.0540 C   0  0  0  0  0  2  0  0  0  0  0  0
   22.7240  -21.9510  -11.8440 C   0  0  0  0  0  3  0  0  0  0  0  0
   23.5690  -22.2370  -13.0820 C   0  0  0  0  0  2  0  0  0  0  0  0
   23.0730  -23.5010  -13.6350 N   0  0  0  0  0  0  0  0  0  0  0  0
   23.6970  -24.2090  -14.6050 C   0  0  0  0  0  0  0  0  0  0  0  0
   23.3210  -25.3500  -14.9180 O   0  0  0  0  0  0  0  0  0  0  0  0
   19.9050  -25.3520  -13.1650 N   0  0  0  0  0  0  0  0  0  0  0  0
   20.6940  -24.4350  -13.7350 C   0  0  0  0  0  0  0  0  0  0  0  0
   20.4680  -23.9450  -14.8450 O   0  0  0  0  0  0  0  0  0  0  0  0
   20.1620  -25.7000  -12.2530 H   0  0  0  0  0  0  0  0  0  0  0  0
   18.6230  -25.8000  -13.6960 C   0  0  0  0  0  2  0  0  0  0  0  0
   15.3130  -23.1800  -12.6400 C   0  0  0  0  0  0  0  0  0  0  0  0
   16.3590  -23.4050  -11.7220 C   0  0  0  0  0  3  0  0  0  0  0  0
   17.4300  -24.2490  -12.0610 C   0  0  0  0  0  3  0  0  0  0  0  0
   15.3530  -23.8050  -13.9040 C   0  0  0  0  0  3  0  0  0  0  0  0
   16.4260  -24.6500  -14.2430 C   0  0  0  0  0  3  0  0  0  0  0  0
   17.4710  -24.8770  -13.3250 C   0  0  0  0  0  0  0  0  0  0  0  0
   12.1730  -23.6400  -13.2130 C   0  0  0  0  0  1  0  0  0  0  0  0
   12.8530  -22.5010  -12.4790 C   0  0  0  0  0  0  0  0  0  0  0  0
   12.0560  -21.5280  -11.9120 N   0  0  0  0  0  0  0  0  0  0  0  0
   12.7190  -20.5730  -11.0310 C   0  0  0  0  0  2  0  0  0  0  0  0
   14.4800  -20.8740  -11.3420 S   0  0  0  0  0  0  0  0  0  0  0  0
   14.1630  -22.3540  -12.2320 C   0  0  0  0  0  0  0  0  0  0  0  0
   11.0420  -21.5600  -11.9270 H   0  0  0  0  0  0  0  0  0  0  0  0
   23.4130  -22.4170  -10.6940 O   0  0  0  0  0  0  0  0  0  0  0  0
   23.6020  -23.3430  -10.8090 H   0  0  0  0  0  0  0  0  0  0  0  0
   24.6280  -23.0510  -16.7630 C   0  0  1  0  0  0  0  0  0  0  0  0
   25.9000  -22.3830  -17.3420 C   0  0  0  0  0  1  0  0  0  0  0  0
   24.1650  -24.1440  -17.7600 C   0  0  0  0  0  1  0  0  0  0  0  0
   23.5420  -21.9570  -16.7090 C   0  0  0  0  0  1  0  0  0  0  0  0
  2  1  2  0
  2 43  1  0
  3  4  1  0
  4  1  1  0
  4  8  1  0
  5 14  1  0
  5  7  1  0
  6  3  2  0
  6  5  1  0
  7  8  1  0
  8 10  1  0
  8 11  1  0
  9  7  1  0
 12 13  2  0
 14 12  1  0
 15 14  1  0
 16 12  1  0
 17 16  1  0
 17 19  1  0
 17 18  1  0
 18 32  2  0
 19 24  1  0
 20 21  1  0
 20 19  2  0
 21 22  2  0
 22 24  1  0
 22 23  1  0
 24 25  1  0
 25 31  2  0
 25 26  1  0
 26 27  1  0
 27 28  1  0
 29 30  1  0
 29 27  2  0
 31 29  1  0
 32 33  1  0
 32 31  1  0
 33 34  1  0
 34 35  2  0
 36 37  1  0
 36 35  1  0
 38 36  2  0
 39 38  1  0
 39 33  2  0
 40 46  1  0
 40 41  1  0
 41 42  2  0
 43 41  1  0
 43 45  1  0
 44 40  1  0
 46 52  1  0
 47 55  1  0
 47 48  1  0
 48 49  1  0
 49 72  1  0
 50 49  1  0
 51 50  1  0
 51 47  1  0
 52 51  1  0
 53 52  2  0
 54 57  1  0
 55 54  1  0
 56 55  2  0
 58 64  1  0
 58 54  1  0
 59 70  1  0
 59 60  1  0
 61 60  2  0
 62 59  2  0
 63 62  1  0
 63 64  2  0
 64 61  1  0
 65 66  1  0
 66 70  2  0
 66 67  1  0
 67 68  1  0
 69 68  1  0
 70 69  1  0
 71 67  1  0
 73 72  1  0
 74 77  1  1
 74 46  1  0
 75 74  1  0
 76 74  1  0
M  ISO  4  12 100  14 100  41 101  43 101
M  END
>  <TORSDO>  (84) 
F 14

>  <SCORE>  (84) 
-15.162

>  <name>  (84) 
83

>  <ligand_id>  (84) 
83

>  <original_smiles>  (84) 
[H]OC1([H])C([H])([H])N(C(=O)C([H])(N([H])C(=O)N([H])N=C([H])C2([H])C([H])=NC([H])(N([H])C(=O)C([H])([H])C3([H])N=C(c4c([H])c([H])c(Cl)c([H])c4[H])c4c(sc(C([H])([H])[H])c4C([H])([H])[H])-n4c(C([H])([H])[H])nnc43)N([H])[N+]2([H])[H])C(C([H])([H])[H])(C([H])([H])[H])C([H])([H])[H])C([H])(C(=O)N([H])C([H])([H])c2c([H])c([H])c(C3=C(C([H])([H])[H])N([H])C([H])([H])S3)c([H])c2[H])C1([H])[H]

>  <smiles>  (84) 
[H]OC1([H])C([H])([H])N(C(=O)C([H])(N([H])C(=O)N([H])N=C([H])C2([H])C([H])=NC([H])(N([H])C(=O)C([H])([H])C3([H])N=C(c4c([H])c([H])c(Cl)c([H])c4[H])c4c(sc(C([H])([H])[H])c4C([H])([H])[H])-n4c(C([H])([H])[H])nnc43)N([H])[N+]2([H])[H])C(C([H])([H])[H])(C([H])([H])[H])C([H])([H])[H])C([H])(C(=O)N([H])C([H])([H])c2c([H])c([H])c(C3=C(C([H])([H])[H])N([H])C([H])([H])S3)c([H])c2[H])C1([H])[H]

$$$$
84:0:0
     RDKit          3D

 79 85  0  0  1  0  0  0  0  0999 V2000
   25.8400  -24.6900  -15.3930 N   0  0  0  0  0  0  0  0  0  0  0  0
   26.6340  -25.3390  -14.5530 C   0  0  0  0  0  0  0  0  0  0  0  0
   27.1850  -24.8250  -13.5620 O   0  0  0  0  0  0  0  0  0  0  0  0
   26.0940  -27.2890  -15.9760 C   0  0  0  0  0  0  0  0  0  0  0  0
   26.4360  -26.7570  -14.7600 N   0  0  0  0  0  0  0  0  0  0  0  0
   26.6040  -26.8990  -17.1680 N   0  0  0  0  0  4  0  0  0  0  0  0
   25.5100  -25.2230  -16.1810 H   0  0  0  0  0  0  0  0  0  0  0  0
   26.5880  -27.4240  -14.0230 H   0  0  0  0  0  0  0  0  0  0  0  0
   27.4110  -26.2930  -17.2310 H   0  0  0  0  0  0  0  0  0  0  0  0
   26.3870  -27.4050  -18.0120 H   0  0  0  0  0  0  0  0  0  0  0  0
   24.9410  -23.5890  -15.0910 C   0  0  0  0  0  3  0  0  0  0  0  0
   21.7890  -23.8380  -12.7330 C   0  0  0  0  0  3  0  0  0  0  0  0
   21.3030  -22.5830  -11.9890 C   0  0  0  0  0  2  0  0  0  0  0  0
   22.5560  -21.7570  -11.7880 C   0  0  0  0  0  3  0  0  0  0  0  0
   23.4510  -22.1030  -12.9770 C   0  0  0  0  0  2  0  0  0  0  0  0
   22.9960  -23.4090  -13.4710 N   0  0  0  0  0  0  0  0  0  0  0  0
   23.6730  -24.1650  -14.3720 C   0  0  0  0  0  0  0  0  0  0  0  0
   23.3460  -25.3340  -14.6130 O   0  0  0  0  0  0  0  0  0  0  0  0
   19.8450  -25.2890  -12.9940 N   0  0  0  0  0  0  0  0  0  0  0  0
   20.6390  -24.3940  -13.5910 C   0  0  0  0  0  0  0  0  0  0  0  0
   20.4450  -23.9750  -14.7330 O   0  0  0  0  0  0  0  0  0  0  0  0
   20.0870  -25.5890  -12.0590 H   0  0  0  0  0  0  0  0  0  0  0  0
   18.5920  -25.7950  -13.5390 C   0  0  0  0  0  2  0  0  0  0  0  0
   15.1780  -23.2500  -12.6340 C   0  0  0  0  0  0  0  0  0  0  0  0
   16.1920  -23.4420  -11.6740 C   0  0  0  0  0  3  0  0  0  0  0  0
   17.2980  -24.2610  -11.9640 C   0  0  0  0  0  3  0  0  0  0  0  0
   15.2840  -23.8830  -13.8910 C   0  0  0  0  0  3  0  0  0  0  0  0
   16.3920  -24.7020  -14.1810 C   0  0  0  0  0  3  0  0  0  0  0  0
   17.4050  -24.8960  -13.2200 C   0  0  0  0  0  0  0  0  0  0  0  0
   12.0860  -23.7310  -13.4240 C   0  0  0  0  0  1  0  0  0  0  0  0
   12.7040  -22.6080  -12.6130 C   0  0  0  0  0  0  0  0  0  0  0  0
   11.8580  -21.6650  -12.0670 N   0  0  0  0  0  0  0  0  0  0  0  0
   12.4480  -20.7350  -11.1100 C   0  0  0  0  0  2  0  0  0  0  0  0
   14.2290  -20.9930  -11.3300 S   0  0  0  0  0  0  0  0  0  0  0  0
   13.9930  -22.4530  -12.2780 C   0  0  0  0  0  0  0  0  0  0  0  0
   10.8460  -21.7170  -12.1400 H   0  0  0  0  0  0  0  0  0  0  0  0
   23.2110  -22.1370  -10.5890 O   0  0  0  0  0  0  0  0  0  0  0  0
   23.4210  -23.0640  -10.6390 H   0  0  0  0  0  0  0  0  0  0  0  0
   24.6390  -22.9060  -16.4720 C   0  0  1  0  0  0  0  0  0  0  0  0
   25.9400  -22.2540  -16.9970 C   0  0  0  0  0  1  0  0  0  0  0  0
   24.1590  -23.8890  -17.5570 C   0  0  0  0  0  1  0  0  0  0  0  0
   23.5810  -21.7950  -16.3460 C   0  0  0  0  0  1  0  0  0  0  0  0
   25.1560  -28.3000  -15.9840 O   0  0  0  0  0  0  0  0  0  0  0  0
   23.3800  -27.2370  -17.3630 C   0  0  0  0  0  1  0  0  0  0  0  0
   24.2820  -28.4570  -17.1390 C   0  0  0  0  0  3  0  0  0  0  0  0
   23.4210  -29.7160  -17.1410 C   0  0  0  0  0  0  0  0  0  0  0  0
   24.0490  -30.8930  -17.2890 N   0  0  0  0  0  4  0  0  0  0  0  0
   22.0620  -29.6660  -17.0940 N   0  0  0  0  0  0  0  0  0  0  0  0
   25.0480  -30.9140  -17.4170 H   0  0  0  0  0  0  0  0  0  0  0  0
   23.5920  -31.7670  -17.0760 H   0  0  0  0  0  0  0  0  0  0  0  0
   21.5710  -28.8030  -16.9010 H   0  0  0  0  0  0  0  0  0  0  0  0
   20.5710  -31.4340  -16.6640 C   0  0  0  0  0  0  0  0  0  0  0  0
   20.0620  -30.9260  -15.6600 O   0  0  0  0  0  0  0  0  0  0  0  0
   21.3000  -30.7490  -17.5560 N   0  0  0  0  0  0  0  0  0  0  0  0
   21.7840  -31.1490  -18.3480 H   0  0  0  0  0  0  0  0  0  0  0  0
   20.5710  -32.9530  -16.8610 C   0  0  0  0  0  2  0  0  0  0  0  0
   21.1620  -33.6690  -15.6200 C   0  0  0  0  0  3  0  0  0  0  0  0
   22.5210  -33.1770  -15.3510 N   0  0  0  0  0  0  0  0  0  0  0  0
   21.1790  -35.1830  -15.7250 C   0  0  0  0  0  0  0  0  0  0  0  0
   20.9260  -35.9130  -16.8170 N   0  0  0  0  0  0  0  0  0  0  0  0
   21.1530  -37.2260  -16.4490 N   0  0  0  0  0  0  0  0  0  0  0  0
   21.5370  -37.1830  -15.1690 C   0  0  0  0  0  0  0  0  0  0  0  0
   21.9430  -38.3970  -14.3900 C   0  0  0  0  0  1  0  0  0  0  0  0
   21.5450  -35.9290  -14.6660 N   0  0  0  0  0  0  0  0  0  0  0  0
   21.8450  -35.4560  -13.3730 C   0  0  0  0  0  0  0  0  0  0  0  0
   21.3650  -36.2190  -11.8910 S   0  0  0  0  0  0  0  0  0  0  0  0
   22.0300  -34.9130  -10.9520 C   0  0  0  0  0  0  0  0  0  0  0  0
   21.9390  -34.9600   -9.4610 C   0  0  0  0  0  1  0  0  0  0  0  0
   22.5760  -33.9280  -11.7470 C   0  0  0  0  0  0  0  0  0  0  0  0
   23.1570  -32.6590  -11.1760 C   0  0  0  0  0  1  0  0  0  0  0  0
   22.5040  -34.2670  -13.1460 C   0  0  0  0  0  0  0  0  0  0  0  0
   23.0960  -33.4190  -14.2310 C   0  0  0  0  0  0  0  0  0  0  0  0
   24.4420  -32.8460  -14.0150 C   0  0  0  0  0  0  0  0  0  0  0  0
   25.5080  -33.6800  -13.6160 C   0  0  0  0  0  3  0  0  0  0  0  0
   26.7870  -33.1330  -13.3910 C   0  0  0  0  0  3  0  0  0  0  0  0
   27.0040  -31.7560  -13.5730 C   0  0  0  0  0  0  0  0  0  0  0  0
   28.5640  -31.0750  -13.3080 Cl  0  0  0  0  0  0  0  0  0  0  0  0
   25.9420  -30.9260  -13.9600 C   0  0  0  0  0  3  0  0  0  0  0  0
   24.6590  -31.4620  -14.1730 C   0  0  0  0  0  3  0  0  0  0  0  0
  1 11  1  0
  1  2  1  0
  2  3  2  0
  4  5  1  0
  5  2  1  0
  5  8  1  0
  6  4  2  0
  7  1  1  0
  9  6  1  0
 10  6  1  0
 11 17  1  0
 12 20  1  0
 12 13  1  0
 13 14  1  0
 14 37  1  0
 15 14  1  0
 16 15  1  0
 16 12  1  0
 17 16  1  0
 18 17  2  0
 19 22  1  0
 20 19  1  0
 21 20  2  0
 23 29  1  0
 23 19  1  0
 24 35  1  0
 24 25  1  0
 26 25  2  0
 27 24  2  0
 28 27  1  0
 28 29  2  0
 29 26  1  0
 30 31  1  0
 31 35  2  0
 31 32  1  0
 32 33  1  0
 34 33  1  0
 35 34  1  0
 36 32  1  0
 38 37  1  0
 39 42  1  1
 39 11  1  0
 40 39  1  0
 41 39  1  0
 43  4  1  0
 45 44  1  0
 45 43  1  0
 46 45  1  0
 46 48  1  0
 47 46  2  0
 47 50  1  0
 48 51  1  0
 49 47  1  0
 52 53  2  0
 54 48  1  0
 54 52  1  0
 55 54  1  0
 56 52  1  0
 57 56  1  0
 57 58  1  0
 58 72  2  0
 59 57  1  0
 59 64  1  0
 60 61  1  0
 60 59  2  0
 61 62  2  0
 62 64  1  0
 62 63  1  0
 64 65  1  0
 65 71  2  0
 65 66  1  0
 66 67  1  0
 67 68  1  0
 69 70  1  0
 69 67  2  0
 71 69  1  0
 72 73  1  0
 72 71  1  0
 73 74  1  0
 74 75  2  0
 76 75  1  0
 76 77  1  0
 78 76  2  0
 79 73  2  0
 79 78  1  0
M  ISO  4   2 101   5 101  52 100  54 100
M  END
>  <TORSDO>  (85) 
F 15

>  <SCORE>  (85) 
-12.140

>  <name>  (85) 
84

>  <ligand_id>  (85) 
84

>  <original_smiles>  (85) 
[H]OC1([H])C([H])([H])N(C(=O)C([H])(N([H])C(=O)N([H])C(OC([H])(C(N([H])[H])=[N+]([H])N([H])C(=O)C([H])([H])C2([H])N=C(c3c([H])c([H])c(Cl)c([H])c3[H])c3c(sc(C([H])([H])[H])c3C([H])([H])[H])-n3c(C([H])([H])[H])nnc32)C([H])([H])[H])=[N+]([H])[H])C(C([H])([H])[H])(C([H])([H])[H])C([H])([H])[H])C([H])(C(=O)N([H])C([H])([H])c2c([H])c([H])c(C3=C(C([H])([H])[H])N([H])C([H])([H])S3)c([H])c2[H])C1([H])[H]

>  <smiles>  (85) 
[H]OC1([H])C([H])([H])N(C(=O)C([H])(N([H])C(=O)N([H])C(OC([H])(C(N([H])[H])=[N+]([H])N([H])C(=O)C([H])([H])C2([H])N=C(c3c([H])c([H])c(Cl)c([H])c3[H])c3c(sc(C([H])([H])[H])c3C([H])([H])[H])-n3c(C([H])([H])[H])nnc32)C([H])([H])[H])=[N+]([H])[H])C(C([H])([H])[H])(C([H])([H])[H])C([H])([H])[H])C([H])(C(=O)N([H])C([H])([H])c2c([H])c([H])c(C3=C(C([H])([H])[H])N([H])C([H])([H])S3)c([H])c2[H])C1([H])[H]

$$$$
85:0:0
     RDKit          3D

 77 84  0  0  1  0  0  0  0  0999 V2000
   24.8180  -27.6710  -15.8580 C   0  0  0  0  0  2  0  0  0  0  0  0
   25.9690  -26.9920  -16.0030 C   0  0  0  0  0  3  0  0  0  0  0  0
   25.1680  -27.4790  -18.2200 C   0  0  0  0  0  2  0  0  0  0  0  0
   24.1020  -27.9010  -17.1750 C   0  0  0  0  0  3  0  0  0  0  0  0
   26.2890  -26.7000  -17.4650 C   0  0  0  0  0  3  0  0  0  0  0  0
   25.6600  -24.4110  -15.5030 N   0  0  0  0  0  0  0  0  0  0  0  0
   26.5500  -24.9870  -14.7020 C   0  0  0  0  0  0  0  0  0  0  0  0
   27.0910  -24.4000  -13.7580 O   0  0  0  0  0  0  0  0  0  0  0  0
   26.6580  -26.3110  -14.9630 N   0  0  0  0  0  0  0  0  0  0  0  0
   25.3290  -25.0060  -16.2460 H   0  0  0  0  0  0  0  0  0  0  0  0
   27.1090  -26.8730  -14.2550 H   0  0  0  0  0  0  0  0  0  0  0  0
   24.7180  -23.3530  -15.1930 C   0  0  0  0  0  3  0  0  0  0  0  0
   21.6900  -23.8180  -12.7150 C   0  0  0  0  0  3  0  0  0  0  0  0
   21.2050  -22.6180  -11.8860 C   0  0  0  0  0  2  0  0  0  0  0  0
   22.4440  -21.7710  -11.6930 C   0  0  0  0  0  3  0  0  0  0  0  0
   23.2930  -22.0250  -12.9380 C   0  0  0  0  0  2  0  0  0  0  0  0
   22.8500  -23.3140  -13.4830 N   0  0  0  0  0  0  0  0  0  0  0  0
   23.5020  -24.0020  -14.4520 C   0  0  0  0  0  0  0  0  0  0  0  0
   23.1780  -25.1570  -14.7460 O   0  0  0  0  0  0  0  0  0  0  0  0
   19.7560  -25.2850  -12.9540 N   0  0  0  0  0  0  0  0  0  0  0  0
   20.5180  -24.3610  -13.5500 C   0  0  0  0  0  0  0  0  0  0  0  0
   20.2750  -23.9060  -14.6690 O   0  0  0  0  0  0  0  0  0  0  0  0
   20.0340  -25.6090  -12.0370 H   0  0  0  0  0  0  0  0  0  0  0  0
   18.4910  -25.7910  -13.4680 C   0  0  0  0  0  2  0  0  0  0  0  0
   15.1190  -23.1930  -12.5600 C   0  0  0  0  0  0  0  0  0  0  0  0
   16.1500  -23.3710  -11.6150 C   0  0  0  0  0  3  0  0  0  0  0  0
   17.2430  -24.2070  -11.9070 C   0  0  0  0  0  3  0  0  0  0  0  0
   15.1920  -23.8580  -13.8030 C   0  0  0  0  0  3  0  0  0  0  0  0
   16.2880  -24.6930  -14.0950 C   0  0  0  0  0  3  0  0  0  0  0  0
   17.3170  -24.8740  -13.1490 C   0  0  0  0  0  0  0  0  0  0  0  0
   12.0000  -23.6900  -13.2300 C   0  0  0  0  0  1  0  0  0  0  0  0
   12.6480  -22.5380  -12.4870 C   0  0  0  0  0  0  0  0  0  0  0  0
   11.8210  -21.5690  -11.9550 N   0  0  0  0  0  0  0  0  0  0  0  0
   12.4440  -20.6010  -11.0590 C   0  0  0  0  0  2  0  0  0  0  0  0
   14.2180  -20.8770  -11.3220 S   0  0  0  0  0  0  0  0  0  0  0  0
   13.9470  -22.3750  -12.2010 C   0  0  0  0  0  0  0  0  0  0  0  0
   10.8080  -21.6230  -11.9900 H   0  0  0  0  0  0  0  0  0  0  0  0
   23.1650  -22.1980  -10.5490 O   0  0  0  0  0  0  0  0  0  0  0  0
   23.4010  -23.1130  -10.6680 H   0  0  0  0  0  0  0  0  0  0  0  0
   24.3410  -22.6880  -16.5660 C   0  0  1  0  0  0  0  0  0  0  0  0
   25.6030  -22.0090  -17.1540 C   0  0  0  0  0  1  0  0  0  0  0  0
   23.8050  -23.6940  -17.6190 C   0  0  0  0  0  1  0  0  0  0  0  0
   23.2830  -21.5830  -16.3740 C   0  0  0  0  0  1  0  0  0  0  0  0
   27.7080  -27.0830  -17.9200 C   0  0  0  0  0  0  0  0  0  0  0  0
   27.9580  -27.0300  -19.4130 C   0  0  0  0  0  1  0  0  0  0  0  0
   28.6400  -27.4160  -17.1330 N   0  0  0  0  0  0  0  0  0  0  0  0
   28.3410  -27.3930  -16.1640 H   0  0  0  0  0  0  0  0  0  0  0  0
   23.5630  -29.3030  -17.4060 C   0  0  0  0  0  3  0  0  0  0  0  0
   22.3160  -29.6260  -17.2880 N   0  0  0  0  0  0  0  0  0  0  0  0
   20.9910  -31.6460  -17.1360 C   0  0  0  0  0  0  0  0  0  0  0  0
   20.1320  -31.1820  -16.3820 O   0  0  0  0  0  0  0  0  0  0  0  0
   21.9860  -30.9010  -17.6630 N   0  0  0  0  0  0  0  0  0  0  0  0
   22.7080  -31.3980  -18.1700 H   0  0  0  0  0  0  0  0  0  0  0  0
   21.1290  -33.1650  -17.3200 C   0  0  0  0  0  2  0  0  0  0  0  0
   21.5820  -33.8220  -15.9890 C   0  0  0  0  0  3  0  0  0  0  0  0
   22.9090  -33.3150  -15.6300 N   0  0  0  0  0  0  0  0  0  0  0  0
   21.6100  -35.3410  -15.9860 C   0  0  0  0  0  0  0  0  0  0  0  0
   21.4510  -36.1500  -17.0400 N   0  0  0  0  0  0  0  0  0  0  0  0
   21.6590  -37.4310  -16.5610 N   0  0  0  0  0  0  0  0  0  0  0  0
   21.9360  -37.2940  -15.2600 C   0  0  0  0  0  0  0  0  0  0  0  0
   22.2920  -38.4440  -14.3660 C   0  0  0  0  0  1  0  0  0  0  0  0
   21.8940  -36.0080  -14.8490 N   0  0  0  0  0  0  0  0  0  0  0  0
   22.0830  -35.4470  -13.5700 C   0  0  0  0  0  0  0  0  0  0  0  0
   21.4890  -36.1150  -12.0850 S   0  0  0  0  0  0  0  0  0  0  0  0
   22.0660  -34.7420  -11.1840 C   0  0  0  0  0  0  0  0  0  0  0  0
   21.8510  -34.6940   -9.7070 C   0  0  0  0  0  1  0  0  0  0  0  0
   22.6690  -33.8040  -11.9970 C   0  0  0  0  0  0  0  0  0  0  0  0
   23.1890  -32.4900  -11.4730 C   0  0  0  0  0  1  0  0  0  0  0  0
   22.7160  -34.2390  -13.3690 C   0  0  0  0  0  0  0  0  0  0  0  0
   23.3920  -33.4640  -14.4560 C   0  0  0  0  0  0  0  0  0  0  0  0
   24.7120  -32.8570  -14.1820 C   0  0  0  0  0  0  0  0  0  0  0  0
   25.7090  -33.6040  -13.5210 C   0  0  0  0  0  3  0  0  0  0  0  0
   26.9560  -33.0160  -13.2350 C   0  0  0  0  0  3  0  0  0  0  0  0
   27.2120  -31.6880  -13.6170 C   0  0  0  0  0  0  0  0  0  0  0  0
   28.7360  -30.9620  -13.2680 Cl  0  0  0  0  0  0  0  0  0  0  0  0
   26.2220  -30.9440  -14.2790 C   0  0  0  0  0  3  0  0  0  0  0  0
   24.9710  -31.5240  -14.5600 C   0  0  0  0  0  3  0  0  0  0  0  0
  2  1  1  0
  2  9  1  0
  3  5  1  0
  3  4  1  0
  4 48  1  0
  4  1  1  0
  5 44  1  0
  5  2  1  0
  6 12  1  0
  6  7  1  0
  7  8  2  0
  9  7  1  0
  9 11  1  0
 10  6  1  0
 12 18  1  0
 13 21  1  0
 13 14  1  0
 14 15  1  0
 15 38  1  0
 16 15  1  0
 17 16  1  0
 17 13  1  0
 18 17  1  0
 19 18  2  0
 20 23  1  0
 21 20  1  0
 22 21  2  0
 24 30  1  0
 24 20  1  0
 25 36  1  0
 25 26  1  0
 27 26  2  0
 28 25  2  0
 29 28  1  0
 29 30  2  0
 30 27  1  0
 31 32  1  0
 32 36  2  0
 32 33  1  0
 33 34  1  0
 35 34  1  0
 36 35  1  0
 37 33  1  0
 39 38  1  0
 40 43  1  1
 40 12  1  0
 41 40  1  0
 42 40  1  0
 44 46  2  0
 45 44  1  0
 46 47  1  0
 48 49  2  0
 50 51  2  0
 52 49  1  0
 52 50  1  0
 53 52  1  0
 54 50  1  0
 55 54  1  0
 55 57  1  0
 55 56  1  0
 56 70  2  0
 57 62  1  0
 58 59  1  0
 58 57  2  0
 59 60  2  0
 60 62  1  0
 60 61  1  0
 62 63  1  0
 63 69  2  0
 63 64  1  0
 64 65  1  0
 65 66  1  0
 67 68  1  0
 67 65  2  0
 69 67  1  0
 70 71  1  0
 70 69  1  0
 71 72  1  0
 72 73  2  0
 74 75  1  0
 74 73  1  0
 76 74  2  0
 77 76  1  0
 77 71  2  0
M  ISO  4   7 101   9 101  50 100  52 100
M  END
>  <TORSDO>  (86) 
F 15

>  <SCORE>  (86) 
-14.122

>  <name>  (86) 
85

>  <ligand_id>  (86) 
85

>  <original_smiles>  (86) 
[H]N=C(C([H])([H])[H])C1([H])C(N([H])C(=O)N([H])C([H])(C(=O)N2C([H])([H])C([H])(O[H])C([H])([H])C2([H])C(=O)N([H])C([H])([H])c2c([H])c([H])c(C3=C(C([H])([H])[H])N([H])C([H])([H])S3)c([H])c2[H])C(C([H])([H])[H])(C([H])([H])[H])C([H])([H])[H])=C([H])C([H])(C([H])=NN([H])C(=O)C([H])([H])C2([H])N=C(c3c([H])c([H])c(Cl)c([H])c3[H])c3c(sc(C([H])([H])[H])c3C([H])([H])[H])-n3c(C([H])([H])[H])nnc32)C1([H])[H]

>  <smiles>  (86) 
[H]N=C(C([H])([H])[H])C1([H])C(N([H])C(=O)N([H])C([H])(C(=O)N2C([H])([H])C([H])(O[H])C([H])([H])C2([H])C(=O)N([H])C([H])([H])c2c([H])c([H])c(C3=C(C([H])([H])[H])N([H])C([H])([H])S3)c([H])c2[H])C(C([H])([H])[H])(C([H])([H])[H])C([H])([H])[H])=C([H])C([H])(C([H])=NN([H])C(=O)C([H])([H])C2([H])N=C(c3c([H])c([H])c(Cl)c([H])c3[H])c3c(sc(C([H])([H])[H])c3C([H])([H])[H])-n3c(C([H])([H])[H])nnc32)C1([H])[H]

$$$$
86:0:0
     RDKit          3D

 80 86  0  0  1  0  0  0  0  0999 V2000
   26.3090  -27.4690  -19.1630 C   0  0  0  0  0  0  0  0  0  0  0  0
   26.4960  -27.4870  -16.7340 C   0  0  0  0  0  0  0  0  0  0  0  0
   27.1390  -27.7200  -20.4200 C   0  0  0  0  0  1  0  0  0  0  0  0
   27.4950  -26.9290  -16.1080 N   0  0  0  0  0  0  0  0  0  0  0  0
   26.7950  -27.9600  -18.0070 N   0  0  0  0  0  0  0  0  0  0  0  0
   25.1800  -27.6700  -16.2910 N   0  0  0  0  0  0  0  0  0  0  0  0
   25.2570  -26.8320  -19.2560 O   0  0  0  0  0  0  0  0  0  0  0  0
   27.6900  -28.4160  -18.1050 H   0  0  0  0  0  0  0  0  0  0  0  0
   24.8510  -27.2800  -15.4150 H   0  0  0  0  0  0  0  0  0  0  0  0
   26.0600  -24.6580  -15.4730 N   0  0  0  0  0  0  0  0  0  0  0  0
   26.9940  -25.1000  -14.6410 C   0  0  0  0  0  0  0  0  0  0  0  0
   27.4890  -24.4180  -13.7370 O   0  0  0  0  0  0  0  0  0  0  0  0
   27.2190  -26.4140  -14.8570 N   0  0  0  0  0  0  0  0  0  0  0  0
   25.7930  -25.3180  -16.1870 H   0  0  0  0  0  0  0  0  0  0  0  0
   27.7560  -26.8530  -14.1190 H   0  0  0  0  0  0  0  0  0  0  0  0
   25.1080  -23.5770  -15.2560 C   0  0  0  0  0  3  0  0  0  0  0  0
   22.0030  -23.9760  -12.8750 C   0  0  0  0  0  3  0  0  0  0  0  0
   21.5320  -22.7810  -12.0310 C   0  0  0  0  0  2  0  0  0  0  0  0
   22.7890  -21.9680  -11.7980 C   0  0  0  0  0  3  0  0  0  0  0  0
   23.6580  -22.2270  -13.0290 C   0  0  0  0  0  2  0  0  0  0  0  0
   23.1930  -23.4960  -13.6050 N   0  0  0  0  0  0  0  0  0  0  0  0
   23.8520  -24.1930  -14.5670 C   0  0  0  0  0  0  0  0  0  0  0  0
   23.5120  -25.3400  -14.8850 O   0  0  0  0  0  0  0  0  0  0  0  0
   20.0480  -25.3950  -13.1940 N   0  0  0  0  0  0  0  0  0  0  0  0
   20.8350  -24.4660  -13.7450 C   0  0  0  0  0  0  0  0  0  0  0  0
   20.6260  -23.9760  -14.8560 O   0  0  0  0  0  0  0  0  0  0  0  0
   20.3000  -25.7500  -12.2810 H   0  0  0  0  0  0  0  0  0  0  0  0
   18.7870  -25.8640  -13.7530 C   0  0  0  0  0  2  0  0  0  0  0  0
   15.4200  -23.3050  -12.7220 C   0  0  0  0  0  0  0  0  0  0  0  0
   16.4390  -23.5470  -11.7800 C   0  0  0  0  0  3  0  0  0  0  0  0
   17.5320  -24.3690  -12.1110 C   0  0  0  0  0  3  0  0  0  0  0  0
   15.5040  -23.8930  -14.0020 C   0  0  0  0  0  3  0  0  0  0  0  0
   16.5980  -24.7160  -14.3340 C   0  0  0  0  0  3  0  0  0  0  0  0
   17.6170  -24.9610  -13.3900 C   0  0  0  0  0  0  0  0  0  0  0  0
   12.3100  -23.7270  -13.4730 C   0  0  0  0  0  1  0  0  0  0  0  0
   12.9520  -22.6360  -12.6410 C   0  0  0  0  0  0  0  0  0  0  0  0
   12.1250  -21.6960  -12.0590 N   0  0  0  0  0  0  0  0  0  0  0  0
   12.7400  -20.7990  -11.0870 C   0  0  0  0  0  2  0  0  0  0  0  0
   14.5170  -21.0710  -11.3420 S   0  0  0  0  0  0  0  0  0  0  0  0
   14.2490  -22.5030  -12.3260 C   0  0  0  0  0  0  0  0  0  0  0  0
   11.1120  -21.7400  -12.1100 H   0  0  0  0  0  0  0  0  0  0  0  0
   23.4740  -22.4330  -10.6460 O   0  0  0  0  0  0  0  0  0  0  0  0
   23.7070  -23.3460  -10.7790 H   0  0  0  0  0  0  0  0  0  0  0  0
   24.8160  -22.9430  -16.6630 C   0  0  1  0  0  0  0  0  0  0  0  0
   26.1040  -22.2490  -17.1690 C   0  0  0  0  0  1  0  0  0  0  0  0
   24.3740  -23.9800  -17.7210 C   0  0  0  0  0  1  0  0  0  0  0  0
   23.7300  -21.8500  -16.5890 C   0  0  0  0  0  1  0  0  0  0  0  0
   24.1370  -29.7540  -16.9590 C   0  0  0  0  0  2  0  0  0  0  0  0
   23.0920  -30.6050  -17.1750 N   0  0  0  0  0  0  0  0  0  0  0  0
   24.1220  -28.3970  -16.9320 N   0  0  0  0  0  0  0  0  0  0  0  0
   23.2460  -31.5740  -16.9140 H   0  0  0  0  0  0  0  0  0  0  0  0
   23.4320  -27.8880  -17.4680 H   0  0  0  0  0  0  0  0  0  0  0  0
   20.8180  -31.0790  -16.7990 C   0  0  0  0  0  0  0  0  0  0  0  0
   20.0240  -30.6910  -15.9450 O   0  0  0  0  0  0  0  0  0  0  0  0
   21.7360  -30.2120  -17.2920 N   0  0  0  0  0  0  0  0  0  0  0  0
   21.6780  -29.2450  -17.0220 H   0  0  0  0  0  0  0  0  0  0  0  0
   20.8400  -32.5820  -17.1740 C   0  0  0  0  0  2  0  0  0  0  0  0
   21.2330  -33.4510  -15.9490 C   0  0  0  0  0  3  0  0  0  0  0  0
   22.5890  -33.0590  -15.5660 N   0  0  0  0  0  0  0  0  0  0  0  0
   21.1710  -34.9550  -16.1520 C   0  0  0  0  0  0  0  0  0  0  0  0
   20.9150  -35.6000  -17.2970 N   0  0  0  0  0  0  0  0  0  0  0  0
   21.0710  -36.9420  -17.0110 N   0  0  0  0  0  0  0  0  0  0  0  0
   21.4100  -37.0050  -15.7200 C   0  0  0  0  0  0  0  0  0  0  0  0
   21.7340  -38.2840  -15.0120 C   0  0  0  0  0  1  0  0  0  0  0  0
   21.4530  -35.7910  -15.1300 N   0  0  0  0  0  0  0  0  0  0  0  0
   21.7230  -35.4310  -13.7930 C   0  0  0  0  0  0  0  0  0  0  0  0
   21.1620  -36.2830  -12.3900 S   0  0  0  0  0  0  0  0  0  0  0  0
   21.8410  -35.0780  -11.3310 C   0  0  0  0  0  0  0  0  0  0  0  0
   21.6930  -35.2190   -9.8500 C   0  0  0  0  0  1  0  0  0  0  0  0
   22.4530  -34.0600  -12.0310 C   0  0  0  0  0  0  0  0  0  0  0  0
   23.0570  -32.8640  -11.3390 C   0  0  0  0  0  1  0  0  0  0  0  0
   22.4190  -34.2910  -13.4510 C   0  0  0  0  0  0  0  0  0  0  0  0
   23.0920  -33.3980  -14.4420 C   0  0  0  0  0  0  0  0  0  0  0  0
   24.4440  -32.8840  -14.1410 C   0  0  0  0  0  0  0  0  0  0  0  0
   25.4590  -33.7760  -13.7300 C   0  0  0  0  0  3  0  0  0  0  0  0
   26.7490  -33.2870  -13.4520 C   0  0  0  0  0  3  0  0  0  0  0  0
   27.0270  -31.9140  -13.5730 C   0  0  0  0  0  0  0  0  0  0  0  0
   28.6020  -31.3180  -13.2180 Cl  0  0  0  0  0  0  0  0  0  0  0  0
   26.0150  -31.0230  -13.9690 C   0  0  0  0  0  3  0  0  0  0  0  0
   24.7230  -31.5060  -14.2500 C   0  0  0  0  0  3  0  0  0  0  0  0
  1  5  1  0
  2  6  1  0
  2  4  2  0
  3  1  1  0
  4 13  1  0
  5  2  1  0
  6  9  1  0
  7  1  2  0
  8  5  1  0
 10 16  1  0
 10 11  1  0
 11 12  2  0
 13 11  1  0
 13 15  1  0
 14 10  1  0
 16 22  1  0
 17 25  1  0
 17 18  1  0
 18 19  1  0
 19 42  1  0
 20 19  1  0
 21 20  1  0
 21 17  1  0
 22 21  1  0
 23 22  2  0
 24 27  1  0
 25 24  1  0
 26 25  2  0
 28 34  1  0
 28 24  1  0
 29 40  1  0
 29 30  1  0
 31 30  2  0
 32 29  2  0
 33 32  1  0
 33 34  2  0
 34 31  1  0
 35 36  1  0
 36 40  2  0
 36 37  1  0
 37 38  1  0
 39 38  1  0
 40 39  1  0
 41 37  1  0
 43 42  1  0
 44 47  1  1
 44 16  1  0
 45 44  1  0
 46 44  1  0
 48 50  1  0
 49 48  1  0
 49 51  1  0
 50  6  1  0
 52 50  1  0
 53 54  2  0
 55 49  1  0
 55 56  1  0
 55 53  1  0
 57 53  1  0
 58 57  1  0
 58 59  1  0
 59 73  2  0
 60 58  1  0
 60 65  1  0
 61 62  1  0
 61 60  2  0
 62 63  2  0
 63 65  1  0
 63 64  1  0
 65 66  1  0
 66 72  2  0
 66 67  1  0
 67 68  1  0
 68 69  1  0
 70 71  1  0
 70 68  2  0
 72 70  1  0
 73 74  1  0
 73 72  1  0
 74 75  1  0
 75 76  2  0
 77 76  1  0
 77 78  1  0
 79 77  2  0
 80 74  2  0
 80 79  1  0
M  ISO  4  11 101  13 101  53 100  55 100
M  END
>  <TORSDO>  (87) 
F 14

>  <SCORE>  (87) 
-14.053

>  <name>  (87) 
86

>  <ligand_id>  (87) 
86

>  <original_smiles>  (87) 
[H]OC1([H])C([H])([H])N(C(=O)C([H])(N([H])C(=O)N([H])N=C(N([H])C(=O)C([H])([H])[H])N([H])[N+]([H])=C([H])N([H])N([H])C(=O)C([H])([H])C2([H])N=C(c3c([H])c([H])c(Cl)c([H])c3[H])c3c(sc(C([H])([H])[H])c3C([H])([H])[H])-n3c(C([H])([H])[H])nnc32)C(C([H])([H])[H])(C([H])([H])[H])C([H])([H])[H])C([H])(C(=O)N([H])C([H])([H])c2c([H])c([H])c(C3=C(C([H])([H])[H])N([H])C([H])([H])S3)c([H])c2[H])C1([H])[H]

>  <smiles>  (87) 
[H]OC1([H])C([H])([H])N(C(=O)C([H])(N([H])C(=O)N([H])N=C(N([H])C(=O)C([H])([H])[H])N([H])[N+]([H])=C([H])N([H])N([H])C(=O)C([H])([H])C2([H])N=C(c3c([H])c([H])c(Cl)c([H])c3[H])c3c(sc(C([H])([H])[H])c3C([H])([H])[H])-n3c(C([H])([H])[H])nnc32)C(C([H])([H])[H])(C([H])([H])[H])C([H])([H])[H])C([H])(C(=O)N([H])C([H])([H])c2c([H])c([H])c(C3=C(C([H])([H])[H])N([H])C([H])([H])S3)c([H])c2[H])C1([H])[H]

$$$$
87:0:0
     RDKit          3D

 77 83  0  0  1  0  0  0  0  0999 V2000
   26.3480  -27.9300  -16.4310 C   0  0  0  0  0  2  0  0  0  0  0  0
   24.0970  -28.8560  -17.0690 C   0  0  0  0  0  0  0  0  0  0  0  0
   25.5310  -28.7570  -17.1390 N   0  0  0  0  0  0  0  0  0  0  0  0
   26.0260  -27.0560  -15.4430 N   0  0  0  0  0  0  0  0  0  0  0  0
   23.4460  -28.0180  -16.4370 O   0  0  0  0  0  0  0  0  0  0  0  0
   26.0490  -29.3970  -17.7190 H   0  0  0  0  0  0  0  0  0  0  0  0
   25.0660  -26.9200  -15.1390 H   0  0  0  0  0  0  0  0  0  0  0  0
   25.9280  -24.4590  -15.0590 N   0  0  0  0  0  0  0  0  0  0  0  0
   26.8600  -25.0800  -14.3400 C   0  0  0  0  0  0  0  0  0  0  0  0
   27.4390  -24.5480  -13.3860 O   0  0  0  0  0  0  0  0  0  0  0  0
   27.0580  -26.3560  -14.7370 N   0  0  0  0  0  0  0  0  0  0  0  0
   25.6120  -24.9210  -15.8940 H   0  0  0  0  0  0  0  0  0  0  0  0
   27.6490  -27.0170  -14.2510 H   0  0  0  0  0  0  0  0  0  0  0  0
   25.1010  -23.3260  -14.6720 C   0  0  0  0  0  3  0  0  0  0  0  0
   21.7670  -23.5260  -12.5860 C   0  0  0  0  0  3  0  0  0  0  0  0
   21.1590  -22.2410  -12.0010 C   0  0  0  0  0  2  0  0  0  0  0  0
   22.3480  -21.3330  -11.7710 C   0  0  0  0  0  3  0  0  0  0  0  0
   23.3620  -21.7320  -12.8430 C   0  0  0  0  0  2  0  0  0  0  0  0
   23.0140  -23.0970  -13.2530 N   0  0  0  0  0  0  0  0  0  0  0  0
   23.8020  -23.8950  -14.0180 C   0  0  0  0  0  0  0  0  0  0  0  0
   23.5480  -25.0970  -14.1790 O   0  0  0  0  0  0  0  0  0  0  0  0
   19.9930  -25.1680  -12.9090 N   0  0  0  0  0  0  0  0  0  0  0  0
   20.7280  -24.2120  -13.4890 C   0  0  0  0  0  0  0  0  0  0  0  0
   20.5580  -23.8420  -14.6520 O   0  0  0  0  0  0  0  0  0  0  0  0
   20.2110  -25.4190  -11.9550 H   0  0  0  0  0  0  0  0  0  0  0  0
   18.8290  -25.8100  -13.5060 C   0  0  0  0  0  2  0  0  0  0  0  0
   15.1300  -23.6190  -12.8250 C   0  0  0  0  0  0  0  0  0  0  0  0
   16.1260  -23.6540  -11.8270 C   0  0  0  0  0  3  0  0  0  0  0  0
   17.3230  -24.3580  -12.0450 C   0  0  0  0  0  3  0  0  0  0  0  0
   15.3470  -24.2900  -14.0460 C   0  0  0  0  0  3  0  0  0  0  0  0
   16.5460  -24.9950  -14.2640 C   0  0  0  0  0  3  0  0  0  0  0  0
   17.5400  -25.0340  -13.2650 C   0  0  0  0  0  0  0  0  0  0  0  0
   12.1310  -24.5150  -13.6080 C   0  0  0  0  0  1  0  0  0  0  0  0
   12.5970  -23.2710  -12.8790 C   0  0  0  0  0  0  0  0  0  0  0  0
   11.6370  -22.3950  -12.4150 N   0  0  0  0  0  0  0  0  0  0  0  0
   12.0960  -21.3360  -11.5250 C   0  0  0  0  0  2  0  0  0  0  0  0
   13.9000  -21.3980  -11.7040 S   0  0  0  0  0  0  0  0  0  0  0  0
   13.8520  -22.9410  -12.5430 C   0  0  0  0  0  0  0  0  0  0  0  0
   10.6400  -22.5710  -12.4950 H   0  0  0  0  0  0  0  0  0  0  0  0
   22.9090  -21.5740  -10.4900 O   0  0  0  0  0  0  0  0  0  0  0  0
   23.1740  -22.4880  -10.4430 H   0  0  0  0  0  0  0  0  0  0  0  0
   24.8390  -22.5040  -15.9860 C   0  0  1  0  0  0  0  0  0  0  0  0
   26.1720  -21.8640  -16.4430 C   0  0  0  0  0  1  0  0  0  0  0  0
   24.2980  -23.3680  -17.1540 C   0  0  0  0  0  1  0  0  0  0  0  0
   23.8440  -21.3500  -15.7490 C   0  0  0  0  0  1  0  0  0  0  0  0
   24.2260  -30.5760  -18.9830 C   0  0  0  0  0  1  0  0  0  0  0  0
   23.4690  -30.1430  -17.7120 C   0  0  0  0  0  3  0  0  0  0  0  0
   22.0150  -30.1200  -18.0550 N   0  0  0  0  0  0  0  0  0  0  0  0
   21.7660  -30.9570  -18.5810 H   0  0  0  0  0  0  0  0  0  0  0  0
   20.2830  -30.8920  -16.4760 C   0  0  0  0  0  0  0  0  0  0  0  0
   19.6140  -30.5710  -15.4980 O   0  0  0  0  0  0  0  0  0  0  0  0
   21.1150  -29.9580  -16.9870 N   0  0  0  0  0  0  0  0  0  0  0  0
   21.0860  -29.0420  -16.5560 H   0  0  0  0  0  0  0  0  0  0  0  0
   20.2660  -32.3690  -16.9400 C   0  0  0  0  0  2  0  0  0  0  0  0
   20.7540  -33.3030  -15.7920 C   0  0  0  0  0  3  0  0  0  0  0  0
   22.1300  -32.9230  -15.4790 N   0  0  0  0  0  0  0  0  0  0  0  0
   20.6900  -34.8000  -16.0620 C   0  0  0  0  0  0  0  0  0  0  0  0
   20.3610  -35.3940  -17.2150 N   0  0  0  0  0  0  0  0  0  0  0  0
   20.5380  -36.7500  -17.0040 N   0  0  0  0  0  0  0  0  0  0  0  0
   20.9670  -36.8690  -15.7430 C   0  0  0  0  0  0  0  0  0  0  0  0
   21.3460  -38.1810  -15.1230 C   0  0  0  0  0  1  0  0  0  0  0  0
   21.0470  -35.6820  -15.1020 N   0  0  0  0  0  0  0  0  0  0  0  0
   21.4020  -35.3840  -13.7710 C   0  0  0  0  0  0  0  0  0  0  0  0
   20.9400  -36.3020  -12.3720 S   0  0  0  0  0  0  0  0  0  0  0  0
   21.6910  -35.1460  -11.3090 C   0  0  0  0  0  0  0  0  0  0  0  0
   21.6450  -35.3680   -9.8300 C   0  0  0  0  0  1  0  0  0  0  0  0
   22.2520  -34.0950  -11.9990 C   0  0  0  0  0  0  0  0  0  0  0  0
   22.9040  -32.9240  -11.3070 C   0  0  0  0  0  1  0  0  0  0  0  0
   22.1210  -34.2600  -13.4240 C   0  0  0  0  0  0  0  0  0  0  0  0
   22.7190  -33.3170  -14.4180 C   0  0  0  0  0  0  0  0  0  0  0  0
   24.0910  -32.8230  -14.1930 C   0  0  0  0  0  0  0  0  0  0  0  0
   25.1140  -33.7190  -13.8170 C   0  0  0  0  0  3  0  0  0  0  0  0
   26.4170  -33.2410  -13.5840 C   0  0  0  0  0  3  0  0  0  0  0  0
   26.7000  -31.8710  -13.7280 C   0  0  0  0  0  0  0  0  0  0  0  0
   28.2920  -31.2770  -13.4440 Cl  0  0  0  0  0  0  0  0  0  0  0  0
   25.6790  -30.9770  -14.0930 C   0  0  0  0  0  3  0  0  0  0  0  0
   24.3750  -31.4480  -14.3250 C   0  0  0  0  0  3  0  0  0  0  0  0
  1  4  1  0
  2  5  2  0
  3  2  1  0
  3  1  1  0
  4  7  1  0
  4 11  1  0
  6  3  1  0
  8 14  1  0
  8  9  1  0
  9 10  2  0
 11  9  1  0
 11 13  1  0
 12  8  1  0
 14 20  1  0
 15 23  1  0
 15 16  1  0
 16 17  1  0
 17 40  1  0
 18 17  1  0
 19 18  1  0
 19 15  1  0
 20 19  1  0
 21 20  2  0
 22 25  1  0
 23 22  1  0
 24 23  2  0
 26 32  1  0
 26 22  1  0
 27 38  1  0
 27 28  1  0
 29 28  2  0
 30 27  2  0
 31 30  1  0
 31 32  2  0
 32 29  1  0
 33 34  1  0
 34 38  2  0
 34 35  1  0
 35 36  1  0
 37 36  1  0
 38 37  1  0
 39 35  1  0
 40 41  1  0
 42 45  1  1
 42 14  1  0
 43 42  1  0
 44 42  1  0
 47 46  1  0
 47  2  1  0
 48 47  1  0
 48 52  1  0
 49 48  1  0
 50 51  2  0
 52 53  1  0
 52 50  1  0
 54 50  1  0
 55 54  1  0
 55 56  1  0
 56 70  2  0
 57 55  1  0
 57 62  1  0
 58 59  1  0
 58 57  2  0
 59 60  2  0
 60 61  1  0
 60 62  1  0
 62 63  1  0
 63 69  2  0
 63 64  1  0
 64 65  1  0
 65 66  1  0
 67 65  2  0
 67 68  1  0
 69 67  1  0
 70 71  1  0
 70 69  1  0
 71 72  1  0
 72 73  2  0
 74 73  1  0
 74 75  1  0
 76 74  2  0
 77 71  2  0
 77 76  1  0
M  ISO  4   9 101  11 101  50 100  52 100
M  END
>  <TORSDO>  (88) 
F 15

>  <SCORE>  (88) 
-4.174

>  <name>  (88) 
87

>  <ligand_id>  (88) 
87

>  <original_smiles>  (88) 
[H]OC1([H])C([H])([H])N(C(=O)C([H])(N([H])C(=O)N([H])[N+]([H])=C([H])N([H])C(=O)C([H])(N([H])N([H])C(=O)C([H])([H])C2([H])N=C(c3c([H])c([H])c(Cl)c([H])c3[H])c3c(sc(C([H])([H])[H])c3C([H])([H])[H])-n3c(C([H])([H])[H])nnc32)C([H])([H])[H])C(C([H])([H])[H])(C([H])([H])[H])C([H])([H])[H])C([H])(C(=O)N([H])C([H])([H])c2c([H])c([H])c(C3=C(C([H])([H])[H])N([H])C([H])([H])S3)c([H])c2[H])C1([H])[H]

>  <smiles>  (88) 
[H]OC1([H])C([H])([H])N(C(=O)C([H])(N([H])C(=O)N([H])[N+]([H])=C([H])N([H])C(=O)C([H])(N([H])N([H])C(=O)C([H])([H])C2([H])N=C(c3c([H])c([H])c(Cl)c([H])c3[H])c3c(sc(C([H])([H])[H])c3C([H])([H])[H])-n3c(C([H])([H])[H])nnc32)C([H])([H])[H])C(C([H])([H])[H])(C([H])([H])[H])C([H])([H])[H])C([H])(C(=O)N([H])C([H])([H])c2c([H])c([H])c(C3=C(C([H])([H])[H])N([H])C([H])([H])S3)c([H])c2[H])C1([H])[H]

$$$$
88:0:0
     RDKit          3D

 78 84  0  0  1  0  0  0  0  0999 V2000
   25.9480  -27.4560  -16.3550 C   0  0  0  0  0  0  0  0  0  0  0  0
   25.6020  -27.8340  -17.5810 N   0  0  0  0  0  0  0  0  0  0  0  0
   27.1260  -26.8270  -16.2940 N   0  0  0  0  0  0  0  0  0  0  0  0
   25.2170  -27.6230  -15.3790 O   0  0  0  0  0  0  0  0  0  0  0  0
   26.1180  -27.7150  -18.4440 H   0  0  0  0  0  0  0  0  0  0  0  0
   27.7430  -26.6570  -17.0780 H   0  0  0  0  0  0  0  0  0  0  0  0
   26.0190  -24.6030  -15.3510 N   0  0  0  0  0  0  0  0  0  0  0  0
   27.0320  -25.0540  -14.6130 C   0  0  0  0  0  0  0  0  0  0  0  0
   27.4400  -24.4910  -13.5980 O   0  0  0  0  0  0  0  0  0  0  0  0
   27.5720  -26.1890  -15.0890 N   0  0  0  0  0  0  0  0  0  0  0  0
   25.7800  -25.1650  -16.1480 H   0  0  0  0  0  0  0  0  0  0  0  0
   28.3200  -26.6960  -14.6330 H   0  0  0  0  0  0  0  0  0  0  0  0
   25.0860  -23.5220  -15.0690 C   0  0  0  0  0  3  0  0  0  0  0  0
   21.9190  -23.9070  -12.7680 C   0  0  0  0  0  3  0  0  0  0  0  0
   21.4200  -22.6980  -11.9610 C   0  0  0  0  0  2  0  0  0  0  0  0
   22.6650  -21.8760  -11.7040 C   0  0  0  0  0  3  0  0  0  0  0  0
   23.5750  -22.1540  -12.8990 C   0  0  0  0  0  2  0  0  0  0  0  0
   23.1320  -23.4320  -13.4680 N   0  0  0  0  0  0  0  0  0  0  0  0
   23.8190  -24.1390  -14.4020 C   0  0  0  0  0  0  0  0  0  0  0  0
   23.4830  -25.2830  -14.7210 O   0  0  0  0  0  0  0  0  0  0  0  0
   20.0040  -25.3680  -13.1390 N   0  0  0  0  0  0  0  0  0  0  0  0
   20.7830  -24.4190  -13.6680 C   0  0  0  0  0  0  0  0  0  0  0  0
   20.5850  -23.9250  -14.7810 O   0  0  0  0  0  0  0  0  0  0  0  0
   20.2520  -25.7270  -12.2280 H   0  0  0  0  0  0  0  0  0  0  0  0
   18.7620  -25.8590  -13.7200 C   0  0  0  0  0  2  0  0  0  0  0  0
   15.3190  -23.3830  -12.7380 C   0  0  0  0  0  0  0  0  0  0  0  0
   16.3440  -23.5790  -11.7910 C   0  0  0  0  0  3  0  0  0  0  0  0
   17.4590  -24.3750  -12.1060 C   0  0  0  0  0  3  0  0  0  0  0  0
   15.4230  -23.9910  -14.0080 C   0  0  0  0  0  3  0  0  0  0  0  0
   16.5400  -24.7870  -14.3230 C   0  0  0  0  0  3  0  0  0  0  0  0
   17.5640  -24.9850  -13.3740 C   0  0  0  0  0  0  0  0  0  0  0  0
   12.2200  -23.9450  -13.4390 C   0  0  0  0  0  1  0  0  0  0  0  0
   12.8310  -22.8000  -12.6550 C   0  0  0  0  0  0  0  0  0  0  0  0
   11.9780  -21.8730  -12.0940 N   0  0  0  0  0  0  0  0  0  0  0  0
   12.5720  -20.9230  -11.1600 C   0  0  0  0  0  2  0  0  0  0  0  0
   14.3520  -21.1380  -11.4270 S   0  0  0  0  0  0  0  0  0  0  0  0
   14.1240  -22.6100  -12.3580 C   0  0  0  0  0  0  0  0  0  0  0  0
   10.9670  -21.9490  -12.1400 H   0  0  0  0  0  0  0  0  0  0  0  0
   23.3140  -22.3150  -10.5210 O   0  0  0  0  0  0  0  0  0  0  0  0
   23.5430  -23.2330  -10.6250 H   0  0  0  0  0  0  0  0  0  0  0  0
   24.7910  -22.8010  -16.4350 C   0  0  1  0  0  0  0  0  0  0  0  0
   26.0910  -22.1290  -16.9350 C   0  0  0  0  0  1  0  0  0  0  0  0
   24.2900  -23.7570  -17.5480 C   0  0  0  0  0  1  0  0  0  0  0  0
   23.7440  -21.6800  -16.2650 C   0  0  0  0  0  1  0  0  0  0  0  0
   23.8060  -28.5610  -18.9890 C   0  0  0  0  0  0  0  0  0  0  0  0
   24.3420  -28.4270  -17.7700 N   0  0  0  0  0  0  0  0  0  0  0  0
   24.3450  -28.1030  -20.0000 O   0  0  0  0  0  0  0  0  0  0  0  0
   23.9470  -28.7740  -16.9010 H   0  0  0  0  0  0  0  0  0  0  0  0
   22.5450  -29.3480  -19.0460 C   0  0  0  0  0  3  0  0  0  0  0  0
   21.8930  -29.6510  -17.9730 N   0  0  0  0  0  0  0  0  0  0  0  0
   20.5330  -31.3160  -17.0420 C   0  0  0  0  0  0  0  0  0  0  0  0
   20.1900  -30.8050  -15.9700 O   0  0  0  0  0  0  0  0  0  0  0  0
   20.9430  -30.6070  -18.1010 N   0  0  0  0  0  0  0  0  0  0  0  0
   20.9890  -31.1030  -18.9830 H   0  0  0  0  0  0  0  0  0  0  0  0
   20.6080  -32.8360  -17.2070 C   0  0  0  0  0  2  0  0  0  0  0  0
   21.2160  -33.5640  -15.9810 C   0  0  0  0  0  3  0  0  0  0  0  0
   22.5580  -33.0520  -15.6810 N   0  0  0  0  0  0  0  0  0  0  0  0
   21.2720  -35.0710  -16.1510 C   0  0  0  0  0  0  0  0  0  0  0  0
   21.0460  -35.7580  -17.2780 N   0  0  0  0  0  0  0  0  0  0  0  0
   21.2920  -37.0810  -16.9650 N   0  0  0  0  0  0  0  0  0  0  0  0
   21.6630  -37.0870  -15.6810 C   0  0  0  0  0  0  0  0  0  0  0  0
   22.0810  -38.3260  -14.9500 C   0  0  0  0  0  1  0  0  0  0  0  0
   21.6450  -35.8570  -15.1240 N   0  0  0  0  0  0  0  0  0  0  0  0
   21.9260  -35.4360  -13.8110 C   0  0  0  0  0  0  0  0  0  0  0  0
   21.4450  -36.2710  -12.3690 S   0  0  0  0  0  0  0  0  0  0  0  0
   22.0810  -34.9970  -11.3680 C   0  0  0  0  0  0  0  0  0  0  0  0
   21.9760  -35.1110   -9.8800 C   0  0  0  0  0  1  0  0  0  0  0  0
   22.6170  -33.9690  -12.1140 C   0  0  0  0  0  0  0  0  0  0  0  0
   23.1690  -32.7170  -11.4820 C   0  0  0  0  0  1  0  0  0  0  0  0
   22.5610  -34.2450  -13.5280 C   0  0  0  0  0  0  0  0  0  0  0  0
   23.1410  -33.3360  -14.5740 C   0  0  0  0  0  0  0  0  0  0  0  0
   24.4820  -32.7540  -14.3310 C   0  0  0  0  0  0  0  0  0  0  0  0
   25.5090  -33.5550  -13.7810 C   0  0  0  0  0  3  0  0  0  0  0  0
   26.7760  -33.0020  -13.5170 C   0  0  0  0  0  3  0  0  0  0  0  0
   27.0230  -31.6480  -13.8020 C   0  0  0  0  0  0  0  0  0  0  0  0
   28.5670  -30.9520  -13.4840 Cl  0  0  0  0  0  0  0  0  0  0  0  0
   26.0060  -30.8530  -14.3510 C   0  0  0  0  0  3  0  0  0  0  0  0
   24.7370  -31.3970  -14.6250 C   0  0  0  0  0  3  0  0  0  0  0  0
  1  3  1  0
  1  4  2  0
  2  1  1  0
  3 10  1  0
  5  2  1  0
  6  3  1  0
  7 13  1  0
  7  8  1  0
  8  9  2  0
 10 12  1  0
 10  8  1  0
 11  7  1  0
 13 19  1  0
 14 22  1  0
 14 15  1  0
 15 16  1  0
 16 39  1  0
 17 16  1  0
 18 17  1  0
 18 14  1  0
 19 18  1  0
 20 19  2  0
 21 24  1  0
 22 21  1  0
 23 22  2  0
 25 31  1  0
 25 21  1  0
 26 37  1  0
 26 27  1  0
 28 27  2  0
 29 26  2  0
 30 29  1  0
 30 31  2  0
 31 28  1  0
 32 33  1  0
 33 37  2  0
 33 34  1  0
 34 35  1  0
 36 35  1  0
 37 36  1  0
 38 34  1  0
 40 39  1  0
 41 44  1  1
 41 13  1  0
 42 41  1  0
 43 41  1  0
 45 46  1  0
 46  2  1  0
 46 48  1  0
 47 45  2  0
 49 45  1  0
 49 50  2  0
 51 52  2  0
 53 50  1  0
 53 51  1  0
 54 53  1  0
 55 51  1  0
 56 55  1  0
 56 57  1  0
 57 71  2  0
 58 56  1  0
 58 63  1  0
 59 60  1  0
 59 58  2  0
 60 61  2  0
 61 63  1  0
 61 62  1  0
 63 64  1  0
 64 70  2  0
 64 65  1  0
 65 66  1  0
 66 67  1  0
 68 69  1  0
 68 66  2  0
 70 68  1  0
 71 72  1  0
 71 70  1  0
 72 73  1  0
 73 74  2  0
 75 74  1  0
 75 76  1  0
 77 75  2  0
 78 77  1  0
 78 72  2  0
M  ISO  4   8 101  10 101  51 100  53 100
M  END
>  <TORSDO>  (89) 
F 15

>  <SCORE>  (89) 
-13.901

>  <name>  (89) 
88

>  <ligand_id>  (89) 
88

>  <original_smiles>  (89) 
[H]OC1([H])C([H])([H])N(C(=O)C([H])(N([H])C(=O)N([H])N([H])C(=O)N([H])N([H])C(=O)C([H])=NN([H])C(=O)C([H])([H])C2([H])N=C(c3c([H])c([H])c(Cl)c([H])c3[H])c3c(sc(C([H])([H])[H])c3C([H])([H])[H])-n3c(C([H])([H])[H])nnc32)C(C([H])([H])[H])(C([H])([H])[H])C([H])([H])[H])C([H])(C(=O)N([H])C([H])([H])c2c([H])c([H])c(C3=C(C([H])([H])[H])N([H])C([H])([H])S3)c([H])c2[H])C1([H])[H]

>  <smiles>  (89) 
[H]OC1([H])C([H])([H])N(C(=O)C([H])(N([H])C(=O)N([H])N([H])C(=O)N([H])N([H])C(=O)C([H])=NN([H])C(=O)C([H])([H])C2([H])N=C(c3c([H])c([H])c(Cl)c([H])c3[H])c3c(sc(C([H])([H])[H])c3C([H])([H])[H])-n3c(C([H])([H])[H])nnc32)C(C([H])([H])[H])(C([H])([H])[H])C([H])([H])[H])C([H])(C(=O)N([H])C([H])([H])c2c([H])c([H])c(C3=C(C([H])([H])[H])N([H])C([H])([H])S3)c([H])c2[H])C1([H])[H]

$$$$
89:0:0
     RDKit          3D

 78 84  0  0  1  0  0  0  0  0999 V2000
   25.9480  -27.4560  -16.3550 C   0  0  0  0  0  0  0  0  0  0  0  0
   25.6020  -27.8340  -17.5810 N   0  0  0  0  0  0  0  0  0  0  0  0
   27.1260  -26.8270  -16.2940 N   0  0  0  0  0  0  0  0  0  0  0  0
   25.2170  -27.6230  -15.3790 O   0  0  0  0  0  0  0  0  0  0  0  0
   26.1180  -27.7150  -18.4440 H   0  0  0  0  0  0  0  0  0  0  0  0
   27.7430  -26.6570  -17.0780 H   0  0  0  0  0  0  0  0  0  0  0  0
   26.0190  -24.6030  -15.3510 N   0  0  0  0  0  0  0  0  0  0  0  0
   27.0320  -25.0540  -14.6130 C   0  0  0  0  0  0  0  0  0  0  0  0
   27.4400  -24.4910  -13.5980 O   0  0  0  0  0  0  0  0  0  0  0  0
   27.5720  -26.1890  -15.0890 N   0  0  0  0  0  0  0  0  0  0  0  0
   25.7800  -25.1650  -16.1480 H   0  0  0  0  0  0  0  0  0  0  0  0
   28.3200  -26.6960  -14.6330 H   0  0  0  0  0  0  0  0  0  0  0  0
   25.0860  -23.5220  -15.0690 C   0  0  0  0  0  3  0  0  0  0  0  0
   21.9190  -23.9070  -12.7680 C   0  0  0  0  0  3  0  0  0  0  0  0
   21.4200  -22.6980  -11.9610 C   0  0  0  0  0  2  0  0  0  0  0  0
   22.6650  -21.8760  -11.7040 C   0  0  0  0  0  3  0  0  0  0  0  0
   23.5750  -22.1540  -12.8990 C   0  0  0  0  0  2  0  0  0  0  0  0
   23.1320  -23.4320  -13.4680 N   0  0  0  0  0  0  0  0  0  0  0  0
   23.8190  -24.1390  -14.4020 C   0  0  0  0  0  0  0  0  0  0  0  0
   23.4830  -25.2830  -14.7210 O   0  0  0  0  0  0  0  0  0  0  0  0
   20.0040  -25.3680  -13.1390 N   0  0  0  0  0  0  0  0  0  0  0  0
   20.7830  -24.4190  -13.6680 C   0  0  0  0  0  0  0  0  0  0  0  0
   20.5850  -23.9250  -14.7810 O   0  0  0  0  0  0  0  0  0  0  0  0
   20.2520  -25.7270  -12.2280 H   0  0  0  0  0  0  0  0  0  0  0  0
   18.7620  -25.8590  -13.7200 C   0  0  0  0  0  2  0  0  0  0  0  0
   15.3190  -23.3830  -12.7380 C   0  0  0  0  0  0  0  0  0  0  0  0
   16.3440  -23.5790  -11.7910 C   0  0  0  0  0  3  0  0  0  0  0  0
   17.4590  -24.3750  -12.1060 C   0  0  0  0  0  3  0  0  0  0  0  0
   15.4230  -23.9910  -14.0080 C   0  0  0  0  0  3  0  0  0  0  0  0
   16.5400  -24.7870  -14.3230 C   0  0  0  0  0  3  0  0  0  0  0  0
   17.5640  -24.9850  -13.3740 C   0  0  0  0  0  0  0  0  0  0  0  0
   12.2200  -23.9450  -13.4390 C   0  0  0  0  0  1  0  0  0  0  0  0
   12.8310  -22.8000  -12.6550 C   0  0  0  0  0  0  0  0  0  0  0  0
   11.9780  -21.8730  -12.0940 N   0  0  0  0  0  0  0  0  0  0  0  0
   12.5720  -20.9230  -11.1600 C   0  0  0  0  0  2  0  0  0  0  0  0
   14.3520  -21.1380  -11.4270 S   0  0  0  0  0  0  0  0  0  0  0  0
   14.1240  -22.6100  -12.3580 C   0  0  0  0  0  0  0  0  0  0  0  0
   10.9670  -21.9490  -12.1400 H   0  0  0  0  0  0  0  0  0  0  0  0
   23.3140  -22.3150  -10.5210 O   0  0  0  0  0  0  0  0  0  0  0  0
   23.5430  -23.2330  -10.6250 H   0  0  0  0  0  0  0  0  0  0  0  0
   24.7910  -22.8010  -16.4350 C   0  0  1  0  0  0  0  0  0  0  0  0
   26.0910  -22.1290  -16.9350 C   0  0  0  0  0  1  0  0  0  0  0  0
   24.2900  -23.7570  -17.5480 C   0  0  0  0  0  1  0  0  0  0  0  0
   23.7440  -21.6800  -16.2650 C   0  0  0  0  0  1  0  0  0  0  0  0
   23.8060  -28.5610  -18.9890 C   0  0  0  0  0  0  0  0  0  0  0  0
   24.3420  -28.4270  -17.7700 N   0  0  0  0  0  0  0  0  0  0  0  0
   24.3450  -28.1030  -20.0000 O   0  0  0  0  0  0  0  0  0  0  0  0
   23.9470  -28.7740  -16.9010 H   0  0  0  0  0  0  0  0  0  0  0  0
   22.5450  -29.3480  -19.0460 C   0  0  0  0  0  3  0  0  0  0  0  0
   21.8930  -29.6510  -17.9730 N   0  0  0  0  0  0  0  0  0  0  0  0
   20.5330  -31.3160  -17.0420 C   0  0  0  0  0  0  0  0  0  0  0  0
   20.1900  -30.8050  -15.9700 O   0  0  0  0  0  0  0  0  0  0  0  0
   20.9430  -30.6070  -18.1010 N   0  0  0  0  0  0  0  0  0  0  0  0
   20.9890  -31.1030  -18.9830 H   0  0  0  0  0  0  0  0  0  0  0  0
   20.6080  -32.8360  -17.2070 C   0  0  0  0  0  2  0  0  0  0  0  0
   21.2160  -33.5640  -15.9810 C   0  0  0  0  0  3  0  0  0  0  0  0
   22.5580  -33.0520  -15.6810 N   0  0  0  0  0  0  0  0  0  0  0  0
   21.2720  -35.0710  -16.1510 C   0  0  0  0  0  0  0  0  0  0  0  0
   21.0460  -35.7580  -17.2780 N   0  0  0  0  0  0  0  0  0  0  0  0
   21.2920  -37.0810  -16.9650 N   0  0  0  0  0  0  0  0  0  0  0  0
   21.6630  -37.0870  -15.6810 C   0  0  0  0  0  0  0  0  0  0  0  0
   22.0810  -38.3260  -14.9500 C   0  0  0  0  0  1  0  0  0  0  0  0
   21.6450  -35.8570  -15.1240 N   0  0  0  0  0  0  0  0  0  0  0  0
   21.9260  -35.4360  -13.8110 C   0  0  0  0  0  0  0  0  0  0  0  0
   21.4450  -36.2710  -12.3690 S   0  0  0  0  0  0  0  0  0  0  0  0
   22.0810  -34.9970  -11.3680 C   0  0  0  0  0  0  0  0  0  0  0  0
   21.9760  -35.1110   -9.8800 C   0  0  0  0  0  1  0  0  0  0  0  0
   22.6170  -33.9690  -12.1140 C   0  0  0  0  0  0  0  0  0  0  0  0
   23.1690  -32.7170  -11.4820 C   0  0  0  0  0  1  0  0  0  0  0  0
   22.5610  -34.2450  -13.5280 C   0  0  0  0  0  0  0  0  0  0  0  0
   23.1410  -33.3360  -14.5740 C   0  0  0  0  0  0  0  0  0  0  0  0
   24.4820  -32.7540  -14.3310 C   0  0  0  0  0  0  0  0  0  0  0  0
   25.5090  -33.5550  -13.7810 C   0  0  0  0  0  3  0  0  0  0  0  0
   26.7760  -33.0020  -13.5170 C   0  0  0  0  0  3  0  0  0  0  0  0
   27.0230  -31.6480  -13.8020 C   0  0  0  0  0  0  0  0  0  0  0  0
   28.5670  -30.9520  -13.4840 Cl  0  0  0  0  0  0  0  0  0  0  0  0
   26.0060  -30.8530  -14.3510 C   0  0  0  0  0  3  0  0  0  0  0  0
   24.7370  -31.3970  -14.6250 C   0  0  0  0  0  3  0  0  0  0  0  0
  1  3  1  0
  1  4  2  0
  2  1  1  0
  3 10  1  0
  5  2  1  0
  6  3  1  0
  7 13  1  0
  7  8  1  0
  8  9  2  0
 10 12  1  0
 10  8  1  0
 11  7  1  0
 13 19  1  0
 14 22  1  0
 14 15  1  0
 15 16  1  0
 16 39  1  0
 17 16  1  0
 18 17  1  0
 18 14  1  0
 19 18  1  0
 20 19  2  0
 21 24  1  0
 22 21  1  0
 23 22  2  0
 25 31  1  0
 25 21  1  0
 26 37  1  0
 26 27  1  0
 28 27  2  0
 29 26  2  0
 30 29  1  0
 30 31  2  0
 31 28  1  0
 32 33  1  0
 33 37  2  0
 33 34  1  0
 34 35  1  0
 36 35  1  0
 37 36  1  0
 38 34  1  0
 40 39  1  0
 41 44  1  1
 41 13  1  0
 42 41  1  0
 43 41  1  0
 45 46  1  0
 46  2  1  0
 46 48  1  0
 47 45  2  0
 49 45  1  0
 49 50  2  0
 51 52  2  0
 53 50  1  0
 53 51  1  0
 54 53  1  0
 55 51  1  0
 56 55  1  0
 56 57  1  0
 57 71  2  0
 58 56  1  0
 58 63  1  0
 59 60  1  0
 59 58  2  0
 60 61  2  0
 61 63  1  0
 61 62  1  0
 63 64  1  0
 64 70  2  0
 64 65  1  0
 65 66  1  0
 66 67  1  0
 68 69  1  0
 68 66  2  0
 70 68  1  0
 71 72  1  0
 71 70  1  0
 72 73  1  0
 73 74  2  0
 75 74  1  0
 75 76  1  0
 77 75  2  0
 78 77  1  0
 78 72  2  0
M  ISO  4   8 101  10 101  51 100  53 100
M  END
>  <TORSDO>  (90) 
F 15

>  <SCORE>  (90) 
-13.901

>  <name>  (90) 
89

>  <ligand_id>  (90) 
89

>  <original_smiles>  (90) 
[H]OC1([H])C([H])([H])N(C(=O)C([H])(N([H])C(=O)N([H])N([H])C(=O)N([H])N([H])C(=O)C([H])=NN([H])C(=O)C([H])([H])C2([H])N=C(c3c([H])c([H])c(Cl)c([H])c3[H])c3c(sc(C([H])([H])[H])c3C([H])([H])[H])-n3c(C([H])([H])[H])nnc32)C(C([H])([H])[H])(C([H])([H])[H])C([H])([H])[H])C([H])(C(=O)N([H])C([H])([H])c2c([H])c([H])c(C3=C(C([H])([H])[H])N([H])C([H])([H])S3)c([H])c2[H])C1([H])[H]

>  <smiles>  (90) 
[H]OC1([H])C([H])([H])N(C(=O)C([H])(N([H])C(=O)N([H])N([H])C(=O)N([H])N([H])C(=O)C([H])=NN([H])C(=O)C([H])([H])C2([H])N=C(c3c([H])c([H])c(Cl)c([H])c3[H])c3c(sc(C([H])([H])[H])c3C([H])([H])[H])-n3c(C([H])([H])[H])nnc32)C(C([H])([H])[H])(C([H])([H])[H])C([H])([H])[H])C([H])(C(=O)N([H])C([H])([H])c2c([H])c([H])c(C3=C(C([H])([H])[H])N([H])C([H])([H])S3)c([H])c2[H])C1([H])[H]

$$$$
90:0:0
     RDKit          3D

 78 84  0  0  1  0  0  0  0  0999 V2000
   25.8580  -24.6420  -15.4020 N   0  0  0  0  0  0  0  0  0  0  0  0
   26.7920  -25.1580  -14.6130 C   0  0  0  0  0  0  0  0  0  0  0  0
   27.3270  -24.5780  -13.6550 O   0  0  0  0  0  0  0  0  0  0  0  0
   26.2300  -27.3150  -15.6430 C   0  0  0  0  0  0  0  0  0  0  0  0
   24.9680  -27.4200  -15.1960 N   0  0  0  0  0  4  0  0  0  0  0  0
   27.1490  -26.4590  -15.1060 N   0  0  0  0  0  0  0  0  0  0  0  0
   26.5470  -28.0960  -16.6990 N   0  0  0  0  0  0  0  0  0  0  0  0
   25.5880  -25.2060  -16.1920 H   0  0  0  0  0  0  0  0  0  0  0  0
   24.5110  -26.7000  -14.6360 H   0  0  0  0  0  0  0  0  0  0  0  0
   24.3270  -28.1420  -15.5300 H   0  0  0  0  0  0  0  0  0  0  0  0
   28.0420  -26.8750  -14.8900 H   0  0  0  0  0  0  0  0  0  0  0  0
   27.4910  -28.0240  -17.0620 H   0  0  0  0  0  0  0  0  0  0  0  0
   24.9420  -23.5460  -15.1690 C   0  0  0  0  0  3  0  0  0  0  0  0
   21.8630  -23.9540  -12.7610 C   0  0  0  0  0  3  0  0  0  0  0  0
   21.4120  -22.7650  -11.9000 C   0  0  0  0  0  2  0  0  0  0  0  0
   22.6790  -21.9670  -11.6680 C   0  0  0  0  0  3  0  0  0  0  0  0
   23.5340  -22.2130  -12.9100 C   0  0  0  0  0  2  0  0  0  0  0  0
   23.0500  -23.4670  -13.4930 N   0  0  0  0  0  0  0  0  0  0  0  0
   23.6880  -24.1530  -14.4680 C   0  0  0  0  0  0  0  0  0  0  0  0
   23.3330  -25.2950  -14.7820 O   0  0  0  0  0  0  0  0  0  0  0  0
   19.8950  -25.3590  -13.0860 N   0  0  0  0  0  0  0  0  0  0  0  0
   20.6880  -24.4310  -13.6320 C   0  0  0  0  0  0  0  0  0  0  0  0
   20.4760  -23.9270  -14.7370 O   0  0  0  0  0  0  0  0  0  0  0  0
   20.1540  -25.7320  -12.1830 H   0  0  0  0  0  0  0  0  0  0  0  0
   18.6230  -25.8050  -13.6390 C   0  0  0  0  0  2  0  0  0  0  0  0
   15.3060  -23.1750  -12.6190 C   0  0  0  0  0  0  0  0  0  0  0  0
   16.3440  -23.4000  -11.6910 C   0  0  0  0  0  3  0  0  0  0  0  0
   17.4170  -24.2460  -12.0180 C   0  0  0  0  0  3  0  0  0  0  0  0
   15.3570  -23.8030  -13.8810 C   0  0  0  0  0  3  0  0  0  0  0  0
   16.4330  -24.6500  -14.2080 C   0  0  0  0  0  3  0  0  0  0  0  0
   17.4690  -24.8770  -13.2790 C   0  0  0  0  0  0  0  0  0  0  0  0
   12.1690  -23.6330  -13.2190 C   0  0  0  0  0  1  0  0  0  0  0  0
   12.8460  -22.4940  -12.4810 C   0  0  0  0  0  0  0  0  0  0  0  0
   12.0450  -21.5210  -11.9190 N   0  0  0  0  0  0  0  0  0  0  0  0
   12.7010  -20.5730  -11.0270 C   0  0  0  0  0  2  0  0  0  0  0  0
   14.4630  -20.8640  -11.3370 S   0  0  0  0  0  0  0  0  0  0  0  0
   14.1530  -22.3490  -12.2230 C   0  0  0  0  0  0  0  0  0  0  0  0
   11.0300  -21.5600  -11.9350 H   0  0  0  0  0  0  0  0  0  0  0  0
   23.3690  -22.4580  -10.5300 O   0  0  0  0  0  0  0  0  0  0  0  0
   23.5690  -23.3780  -10.6710 H   0  0  0  0  0  0  0  0  0  0  0  0
   24.6380  -22.9310  -16.5840 C   0  0  1  0  0  0  0  0  0  0  0  0
   25.9270  -22.2620  -17.1200 C   0  0  0  0  0  1  0  0  0  0  0  0
   24.1780  -23.9800  -17.6300 C   0  0  0  0  0  1  0  0  0  0  0  0
   23.5580  -21.8350  -16.5020 C   0  0  0  0  0  1  0  0  0  0  0  0
   25.6610  -29.0140  -17.4810 C   0  0  0  0  0  2  0  0  0  0  0  0
   24.3010  -28.4280  -17.9900 C   0  0  0  0  0  2  0  0  0  0  0  0
   23.0650  -29.1090  -17.3620 C   0  0  0  0  0  0  0  0  0  0  0  0
   22.0860  -29.5720  -18.1600 N   0  0  0  0  0  0  0  0  0  0  0  0
   23.0050  -29.2090  -16.1380 O   0  0  0  0  0  0  0  0  0  0  0  0
   22.0970  -29.2990  -19.1350 H   0  0  0  0  0  0  0  0  0  0  0  0
   20.9340  -31.5560  -17.1970 C   0  0  0  0  0  0  0  0  0  0  0  0
   20.2950  -30.9770  -16.3120 O   0  0  0  0  0  0  0  0  0  0  0  0
   21.7380  -30.9570  -18.1000 N   0  0  0  0  0  0  0  0  0  0  0  0
   22.2740  -31.4920  -18.7720 H   0  0  0  0  0  0  0  0  0  0  0  0
   20.9610  -33.0910  -17.2650 C   0  0  0  0  0  2  0  0  0  0  0  0
   21.4730  -33.7450  -15.9580 C   0  0  0  0  0  3  0  0  0  0  0  0
   22.8100  -33.2410  -15.6280 N   0  0  0  0  0  0  0  0  0  0  0  0
   21.5040  -35.2650  -16.0000 C   0  0  0  0  0  0  0  0  0  0  0  0
   21.3220  -36.0410  -17.0760 N   0  0  0  0  0  0  0  0  0  0  0  0
   21.5360  -37.3360  -16.6440 N   0  0  0  0  0  0  0  0  0  0  0  0
   21.8440  -37.2400  -15.3460 C   0  0  0  0  0  0  0  0  0  0  0  0
   22.2140  -38.4180  -14.4970 C   0  0  0  0  0  1  0  0  0  0  0  0
   21.8150  -35.9680  -14.8940 N   0  0  0  0  0  0  0  0  0  0  0  0
   22.0370  -35.4430  -13.6060 C   0  0  0  0  0  0  0  0  0  0  0  0
   21.4770  -36.1500  -12.1260 S   0  0  0  0  0  0  0  0  0  0  0  0
   22.0790  -34.8030  -11.2020 C   0  0  0  0  0  0  0  0  0  0  0  0
   21.9000  -34.7910   -9.7180 C   0  0  0  0  0  1  0  0  0  0  0  0
   22.6650  -33.8460  -12.0030 C   0  0  0  0  0  0  0  0  0  0  0  0
   23.2040  -32.5500  -11.4540 C   0  0  0  0  0  1  0  0  0  0  0  0
   22.6760  -34.2410  -13.3890 C   0  0  0  0  0  0  0  0  0  0  0  0
   23.3270  -33.4370  -14.4730 C   0  0  0  0  0  0  0  0  0  0  0  0
   24.6600  -32.8540  -14.2080 C   0  0  0  0  0  0  0  0  0  0  0  0
   25.6720  -33.6220  -13.5950 C   0  0  0  0  0  3  0  0  0  0  0  0
   26.9280  -33.0470  -13.3220 C   0  0  0  0  0  3  0  0  0  0  0  0
   27.1760  -31.7030  -13.6590 C   0  0  0  0  0  0  0  0  0  0  0  0
   28.7110  -30.9900  -13.3310 Cl  0  0  0  0  0  0  0  0  0  0  0  0
   26.1670  -30.9330  -14.2560 C   0  0  0  0  0  3  0  0  0  0  0  0
   24.9160  -31.5100  -14.5340 C   0  0  0  0  0  3  0  0  0  0  0  0
  1 13  1  0
  1  2  1  0
  2  3  2  0
  4  5  2  0
  4  6  1  0
  5  9  1  0
  6 11  1  0
  6  2  1  0
  7  4  1  0
  8  1  1  0
 10  5  1  0
 12  7  1  0
 13 19  1  0
 14 22  1  0
 14 15  1  0
 15 16  1  0
 16 39  1  0
 17 16  1  0
 18 17  1  0
 18 14  1  0
 19 18  1  0
 20 19  2  0
 21 24  1  0
 22 21  1  0
 23 22  2  0
 25 31  1  0
 25 21  1  0
 26 37  1  0
 26 27  1  0
 28 27  2  0
 29 26  2  0
 30 29  1  0
 30 31  2  0
 31 28  1  0
 32 33  1  0
 33 37  2  0
 33 34  1  0
 34 35  1  0
 36 35  1  0
 37 36  1  0
 38 34  1  0
 40 39  1  0
 41 44  1  1
 41 13  1  0
 42 41  1  0
 43 41  1  0
 45  7  1  0
 46 45  1  0
 46 47  1  0
 47 49  2  0
 48 53  1  0
 48 47  1  0
 50 48  1  0
 51 52  2  0
 53 51  1  0
 54 53  1  0
 55 51  1  0
 56 55  1  0
 56 57  1  0
 57 71  2  0
 58 56  1  0
 58 63  1  0
 59 60  1  0
 59 58  2  0
 60 61  2  0
 61 63  1  0
 61 62  1  0
 63 64  1  0
 64 70  2  0
 64 65  1  0
 65 66  1  0
 66 67  1  0
 68 69  1  0
 68 66  2  0
 70 68  1  0
 71 72  1  0
 71 70  1  0
 72 73  1  0
 73 74  2  0
 75 76  1  0
 75 74  1  0
 77 75  2  0
 78 77  1  0
 78 72  2  0
M  ISO  4   2 101   6 101  51 100  53 100
M  END
>  <TORSDO>  (91) 
F 15

>  <SCORE>  (91) 
-14.362

>  <name>  (91) 
90

>  <ligand_id>  (91) 
90

>  <original_smiles>  (91) 
[H]OC1([H])C([H])([H])N(C(=O)C([H])(N([H])C(=O)N([H])C(N([H])[H])=[N+]([H])C([H])([H])C([H])([H])C(=O)N([H])N([H])C(=O)C([H])([H])C2([H])N=C(c3c([H])c([H])c(Cl)c([H])c3[H])c3c(sc(C([H])([H])[H])c3C([H])([H])[H])-n3c(C([H])([H])[H])nnc32)C(C([H])([H])[H])(C([H])([H])[H])C([H])([H])[H])C([H])(C(=O)N([H])C([H])([H])c2c([H])c([H])c(C3=C(C([H])([H])[H])N([H])C([H])([H])S3)c([H])c2[H])C1([H])[H]

>  <smiles>  (91) 
[H]OC1([H])C([H])([H])N(C(=O)C([H])(N([H])C(=O)N([H])C(N([H])[H])=[N+]([H])C([H])([H])C([H])([H])C(=O)N([H])N([H])C(=O)C([H])([H])C2([H])N=C(c3c([H])c([H])c(Cl)c([H])c3[H])c3c(sc(C([H])([H])[H])c3C([H])([H])[H])-n3c(C([H])([H])[H])nnc32)C(C([H])([H])[H])(C([H])([H])[H])C([H])([H])[H])C([H])(C(=O)N([H])C([H])([H])c2c([H])c([H])c(C3=C(C([H])([H])[H])N([H])C([H])([H])S3)c([H])c2[H])C1([H])[H]

$$$$
91:0:0
     RDKit          3D

 79 85  0  0  1  0  0  0  0  0999 V2000
   25.8210  -24.7820  -15.4650 N   0  0  0  0  0  0  0  0  0  0  0  0
   26.7550  -25.2510  -14.6440 C   0  0  0  0  0  0  0  0  0  0  0  0
   27.1990  -24.6100  -13.6760 O   0  0  0  0  0  0  0  0  0  0  0  0
   26.9300  -27.5550  -15.8410 C   0  0  0  0  0  0  0  0  0  0  0  0
   27.9370  -28.3540  -16.2170 N   0  0  0  0  0  4  0  0  0  0  0  0
   27.3160  -26.5290  -15.0100 N   0  0  0  0  0  0  0  0  0  0  0  0
   25.7310  -27.9760  -16.3660 N   0  0  0  0  0  0  0  0  0  0  0  0
   25.5960  -25.3110  -16.2900 H   0  0  0  0  0  0  0  0  0  0  0  0
   28.8980  -28.1400  -15.9910 H   0  0  0  0  0  0  0  0  0  0  0  0
   27.8150  -29.1570  -16.8190 H   0  0  0  0  0  0  0  0  0  0  0  0
   28.1560  -26.7800  -14.5160 H   0  0  0  0  0  0  0  0  0  0  0  0
   25.8260  -28.7870  -16.9580 H   0  0  0  0  0  0  0  0  0  0  0  0
   24.9400  -23.6410  -15.2160 C   0  0  0  0  0  3  0  0  0  0  0  0
   21.8530  -23.9200  -12.7920 C   0  0  0  0  0  3  0  0  0  0  0  0
   21.4050  -22.7000  -11.9720 C   0  0  0  0  0  2  0  0  0  0  0  0
   22.6740  -21.9020  -11.7620 C   0  0  0  0  0  3  0  0  0  0  0  0
   23.5350  -22.1970  -12.9900 C   0  0  0  0  0  2  0  0  0  0  0  0
   23.0460  -23.4680  -13.5370 N   0  0  0  0  0  0  0  0  0  0  0  0
   23.6750  -24.1950  -14.4920 C   0  0  0  0  0  0  0  0  0  0  0  0
   23.3020  -25.3370  -14.7770 O   0  0  0  0  0  0  0  0  0  0  0  0
   19.8970  -25.3440  -13.0890 N   0  0  0  0  0  0  0  0  0  0  0  0
   20.6780  -24.4150  -13.6500 C   0  0  0  0  0  0  0  0  0  0  0  0
   20.4590  -23.9300  -14.7610 O   0  0  0  0  0  0  0  0  0  0  0  0
   20.1600  -25.6960  -12.1780 H   0  0  0  0  0  0  0  0  0  0  0  0
   18.6300  -25.8150  -13.6320 C   0  0  0  0  0  2  0  0  0  0  0  0
   15.2810  -23.2260  -12.6210 C   0  0  0  0  0  0  0  0  0  0  0  0
   16.3240  -23.4290  -11.6950 C   0  0  0  0  0  3  0  0  0  0  0  0
   17.4080  -24.2620  -12.0190 C   0  0  0  0  0  3  0  0  0  0  0  0
   15.3380  -23.8620  -13.8810 C   0  0  0  0  0  3  0  0  0  0  0  0
   16.4250  -24.6950  -14.2050 C   0  0  0  0  0  3  0  0  0  0  0  0
   17.4660  -24.9010  -13.2770 C   0  0  0  0  0  0  0  0  0  0  0  0
   12.1510  -23.7270  -13.2240 C   0  0  0  0  0  1  0  0  0  0  0  0
   12.8110  -22.5790  -12.4870 C   0  0  0  0  0  0  0  0  0  0  0  0
   11.9970  -21.6160  -11.9280 N   0  0  0  0  0  0  0  0  0  0  0  0
   12.6390  -20.6540  -11.0380 C   0  0  0  0  0  2  0  0  0  0  0  0
   14.4060  -20.9240  -11.3450 S   0  0  0  0  0  0  0  0  0  0  0  0
   14.1160  -22.4140  -12.2290 C   0  0  0  0  0  0  0  0  0  0  0  0
   10.9830  -21.6650  -11.9470 H   0  0  0  0  0  0  0  0  0  0  0  0
   23.3530  -22.3560  -10.6020 O   0  0  0  0  0  0  0  0  0  0  0  0
   23.5430  -23.2830  -10.7070 H   0  0  0  0  0  0  0  0  0  0  0  0
   24.6390  -22.9800  -16.6120 C   0  0  1  0  0  0  0  0  0  0  0  0
   25.9340  -22.3150  -17.1320 C   0  0  0  0  0  1  0  0  0  0  0  0
   24.1590  -23.9920  -17.6820 C   0  0  0  0  0  1  0  0  0  0  0  0
   23.5760  -21.8680  -16.5080 C   0  0  0  0  0  1  0  0  0  0  0  0
   24.2610  -27.7400  -16.2070 C   0  0  0  0  0  2  0  0  0  0  0  0
   23.5640  -28.7490  -17.1520 C   0  0  0  0  0  0  0  0  0  0  0  0
   24.0530  -28.8510  -18.4020 N   0  0  0  0  0  4  0  0  0  0  0  0
   22.4960  -29.5290  -16.7830 N   0  0  0  0  0  0  0  0  0  0  0  0
   24.7260  -28.1770  -18.7330 H   0  0  0  0  0  0  0  0  0  0  0  0
   23.5500  -29.3550  -19.1130 H   0  0  0  0  0  0  0  0  0  0  0  0
   22.0330  -29.4010  -15.8920 H   0  0  0  0  0  0  0  0  0  0  0  0
   20.9730  -31.3490  -17.0950 C   0  0  0  0  0  0  0  0  0  0  0  0
   20.1960  -30.9030  -16.2490 O   0  0  0  0  0  0  0  0  0  0  0  0
   21.9790  -30.5900  -17.6080 N   0  0  0  0  0  0  0  0  0  0  0  0
   22.7500  -31.0010  -18.1140 H   0  0  0  0  0  0  0  0  0  0  0  0
   20.9640  -32.8720  -17.3980 C   0  0  0  0  0  2  0  0  0  0  0  0
   21.4130  -33.6690  -16.1370 C   0  0  0  0  0  3  0  0  0  0  0  0
   22.7530  -33.2050  -15.7780 N   0  0  0  0  0  0  0  0  0  0  0  0
   21.4200  -35.1900  -16.2420 C   0  0  0  0  0  0  0  0  0  0  0  0
   21.2120  -35.9240  -17.3430 N   0  0  0  0  0  0  0  0  0  0  0  0
   21.4210  -37.2390  -16.9630 N   0  0  0  0  0  0  0  0  0  0  0  0
   21.7500  -37.1990  -15.6680 C   0  0  0  0  0  0  0  0  0  0  0  0
   22.1240  -38.4130  -14.8710 C   0  0  0  0  0  1  0  0  0  0  0  0
   21.7350  -35.9440  -15.1650 N   0  0  0  0  0  0  0  0  0  0  0  0
   21.9760  -35.4830  -13.8540 C   0  0  0  0  0  0  0  0  0  0  0  0
   21.4340  -36.2550  -12.3980 S   0  0  0  0  0  0  0  0  0  0  0  0
   22.0570  -34.9550  -11.4210 C   0  0  0  0  0  0  0  0  0  0  0  0
   21.8990  -35.0130   -9.9360 C   0  0  0  0  0  1  0  0  0  0  0  0
   22.6370  -33.9650  -12.1850 C   0  0  0  0  0  0  0  0  0  0  0  0
   23.1870  -32.6960  -11.5840 C   0  0  0  0  0  1  0  0  0  0  0  0
   22.6270  -34.2980  -13.5870 C   0  0  0  0  0  0  0  0  0  0  0  0
   23.2700  -33.4520  -14.6380 C   0  0  0  0  0  0  0  0  0  0  0  0
   24.6040  -32.8750  -14.3720 C   0  0  0  0  0  0  0  0  0  0  0  0
   25.6190  -33.6750  -13.8080 C   0  0  0  0  0  3  0  0  0  0  0  0
   26.8840  -33.1190  -13.5360 C   0  0  0  0  0  3  0  0  0  0  0  0
   27.1340  -31.7640  -13.8190 C   0  0  0  0  0  0  0  0  0  0  0  0
   28.6750  -31.0740  -13.4820 Cl  0  0  0  0  0  0  0  0  0  0  0  0
   26.1200  -30.9650  -14.3720 C   0  0  0  0  0  3  0  0  0  0  0  0
   24.8600  -31.5190  -14.6620 C   0  0  0  0  0  3  0  0  0  0  0  0
  1 13  1  0
  1  2  1  0
  2  3  2  0
  4  6  1  0
  5  9  1  0
  5  4  2  0
  6  2  1  0
  6 11  1  0
  7 45  1  0
  7  4  1  0
  8  1  1  0
 10  5  1  0
 12  7  1  0
 13 19  1  0
 14 22  1  0
 14 15  1  0
 15 16  1  0
 16 39  1  0
 17 16  1  0
 18 17  1  0
 18 14  1  0
 19 18  1  0
 20 19  2  0
 21 24  1  0
 22 21  1  0
 23 22  2  0
 25 31  1  0
 25 21  1  0
 26 37  1  0
 26 27  1  0
 28 27  2  0
 29 26  2  0
 30 29  1  0
 30 31  2  0
 31 28  1  0
 32 33  1  0
 33 37  2  0
 33 34  1  0
 34 35  1  0
 36 35  1  0
 37 36  1  0
 38 34  1  0
 40 39  1  0
 41 44  1  1
 41 13  1  0
 42 41  1  0
 43 41  1  0
 46 48  1  0
 46 45  1  0
 47 46  2  0
 48 51  1  0
 49 47  1  0
 50 47  1  0
 52 53  2  0
 54 52  1  0
 54 48  1  0
 55 54  1  0
 56 52  1  0
 57 56  1  0
 57 58  1  0
 58 72  2  0
 59 57  1  0
 59 64  1  0
 60 61  1  0
 60 59  2  0
 61 62  2  0
 62 64  1  0
 62 63  1  0
 64 65  1  0
 65 71  2  0
 65 66  1  0
 66 67  1  0
 67 68  1  0
 69 70  1  0
 69 67  2  0
 71 69  1  0
 72 73  1  0
 72 71  1  0
 73 74  1  0
 74 75  2  0
 76 75  1  0
 76 77  1  0
 78 76  2  0
 79 78  1  0
 79 73  2  0
M  ISO  4   2 101   6 101  52 100  54 100
M  END
>  <TORSDO>  (92) 
F 14

>  <SCORE>  (92) 
-14.643

>  <name>  (92) 
91

>  <ligand_id>  (92) 
91

>  <original_smiles>  (92) 
[H]OC1([H])C([H])([H])N(C(=O)C([H])(N([H])C(=O)N([H])C(N([H])[H])=[N+]([H])C([H])([H])C(N([H])[H])=[N+]([H])N([H])C(=O)C([H])([H])C2([H])N=C(c3c([H])c([H])c(Cl)c([H])c3[H])c3c(sc(C([H])([H])[H])c3C([H])([H])[H])-n3c(C([H])([H])[H])nnc32)C(C([H])([H])[H])(C([H])([H])[H])C([H])([H])[H])C([H])(C(=O)N([H])C([H])([H])c2c([H])c([H])c(C3=C(C([H])([H])[H])N([H])C([H])([H])S3)c([H])c2[H])C1([H])[H]

>  <smiles>  (92) 
[H]OC1([H])C([H])([H])N(C(=O)C([H])(N([H])C(=O)N([H])C(N([H])[H])=[N+]([H])C([H])([H])C(N([H])[H])=[N+]([H])N([H])C(=O)C([H])([H])C2([H])N=C(c3c([H])c([H])c(Cl)c([H])c3[H])c3c(sc(C([H])([H])[H])c3C([H])([H])[H])-n3c(C([H])([H])[H])nnc32)C(C([H])([H])[H])(C([H])([H])[H])C([H])([H])[H])C([H])(C(=O)N([H])C([H])([H])c2c([H])c([H])c(C3=C(C([H])([H])[H])N([H])C([H])([H])S3)c([H])c2[H])C1([H])[H]

$$$$
92:0:0
     RDKit          3D

 79 85  0  0  1  0  0  0  0  0999 V2000
   25.8210  -24.7820  -15.4650 N   0  0  0  0  0  0  0  0  0  0  0  0
   26.7550  -25.2510  -14.6440 C   0  0  0  0  0  0  0  0  0  0  0  0
   27.1990  -24.6100  -13.6760 O   0  0  0  0  0  0  0  0  0  0  0  0
   26.9300  -27.5550  -15.8410 C   0  0  0  0  0  0  0  0  0  0  0  0
   27.9370  -28.3540  -16.2170 N   0  0  0  0  0  4  0  0  0  0  0  0
   27.3160  -26.5290  -15.0100 N   0  0  0  0  0  0  0  0  0  0  0  0
   25.7310  -27.9760  -16.3660 N   0  0  0  0  0  0  0  0  0  0  0  0
   25.5960  -25.3110  -16.2900 H   0  0  0  0  0  0  0  0  0  0  0  0
   28.8980  -28.1400  -15.9910 H   0  0  0  0  0  0  0  0  0  0  0  0
   27.8150  -29.1570  -16.8190 H   0  0  0  0  0  0  0  0  0  0  0  0
   28.1560  -26.7800  -14.5160 H   0  0  0  0  0  0  0  0  0  0  0  0
   25.8260  -28.7870  -16.9580 H   0  0  0  0  0  0  0  0  0  0  0  0
   24.9400  -23.6410  -15.2160 C   0  0  0  0  0  3  0  0  0  0  0  0
   21.8530  -23.9200  -12.7920 C   0  0  0  0  0  3  0  0  0  0  0  0
   21.4050  -22.7000  -11.9720 C   0  0  0  0  0  2  0  0  0  0  0  0
   22.6740  -21.9020  -11.7620 C   0  0  0  0  0  3  0  0  0  0  0  0
   23.5350  -22.1970  -12.9900 C   0  0  0  0  0  2  0  0  0  0  0  0
   23.0460  -23.4680  -13.5370 N   0  0  0  0  0  0  0  0  0  0  0  0
   23.6750  -24.1950  -14.4920 C   0  0  0  0  0  0  0  0  0  0  0  0
   23.3020  -25.3370  -14.7770 O   0  0  0  0  0  0  0  0  0  0  0  0
   19.8970  -25.3440  -13.0890 N   0  0  0  0  0  0  0  0  0  0  0  0
   20.6780  -24.4150  -13.6500 C   0  0  0  0  0  0  0  0  0  0  0  0
   20.4590  -23.9300  -14.7610 O   0  0  0  0  0  0  0  0  0  0  0  0
   20.1600  -25.6960  -12.1780 H   0  0  0  0  0  0  0  0  0  0  0  0
   18.6300  -25.8150  -13.6320 C   0  0  0  0  0  2  0  0  0  0  0  0
   15.2810  -23.2260  -12.6210 C   0  0  0  0  0  0  0  0  0  0  0  0
   16.3240  -23.4290  -11.6950 C   0  0  0  0  0  3  0  0  0  0  0  0
   17.4080  -24.2620  -12.0190 C   0  0  0  0  0  3  0  0  0  0  0  0
   15.3380  -23.8620  -13.8810 C   0  0  0  0  0  3  0  0  0  0  0  0
   16.4250  -24.6950  -14.2050 C   0  0  0  0  0  3  0  0  0  0  0  0
   17.4660  -24.9010  -13.2770 C   0  0  0  0  0  0  0  0  0  0  0  0
   12.1510  -23.7270  -13.2240 C   0  0  0  0  0  1  0  0  0  0  0  0
   12.8110  -22.5790  -12.4870 C   0  0  0  0  0  0  0  0  0  0  0  0
   11.9970  -21.6160  -11.9280 N   0  0  0  0  0  0  0  0  0  0  0  0
   12.6390  -20.6540  -11.0380 C   0  0  0  0  0  2  0  0  0  0  0  0
   14.4060  -20.9240  -11.3450 S   0  0  0  0  0  0  0  0  0  0  0  0
   14.1160  -22.4140  -12.2290 C   0  0  0  0  0  0  0  0  0  0  0  0
   10.9830  -21.6650  -11.9470 H   0  0  0  0  0  0  0  0  0  0  0  0
   23.3530  -22.3560  -10.6020 O   0  0  0  0  0  0  0  0  0  0  0  0
   23.5430  -23.2830  -10.7070 H   0  0  0  0  0  0  0  0  0  0  0  0
   24.6390  -22.9800  -16.6120 C   0  0  1  0  0  0  0  0  0  0  0  0
   25.9340  -22.3150  -17.1320 C   0  0  0  0  0  1  0  0  0  0  0  0
   24.1590  -23.9920  -17.6820 C   0  0  0  0  0  1  0  0  0  0  0  0
   23.5760  -21.8680  -16.5080 C   0  0  0  0  0  1  0  0  0  0  0  0
   24.2610  -27.7400  -16.2070 C   0  0  0  0  0  2  0  0  0  0  0  0
   23.5640  -28.7490  -17.1520 C   0  0  0  0  0  0  0  0  0  0  0  0
   24.0530  -28.8510  -18.4020 N   0  0  0  0  0  4  0  0  0  0  0  0
   22.4960  -29.5290  -16.7830 N   0  0  0  0  0  0  0  0  0  0  0  0
   24.7260  -28.1770  -18.7330 H   0  0  0  0  0  0  0  0  0  0  0  0
   23.5500  -29.3550  -19.1130 H   0  0  0  0  0  0  0  0  0  0  0  0
   22.0330  -29.4010  -15.8920 H   0  0  0  0  0  0  0  0  0  0  0  0
   20.9730  -31.3490  -17.0950 C   0  0  0  0  0  0  0  0  0  0  0  0
   20.1960  -30.9030  -16.2490 O   0  0  0  0  0  0  0  0  0  0  0  0
   21.9790  -30.5900  -17.6080 N   0  0  0  0  0  0  0  0  0  0  0  0
   22.7500  -31.0010  -18.1140 H   0  0  0  0  0  0  0  0  0  0  0  0
   20.9640  -32.8720  -17.3980 C   0  0  0  0  0  2  0  0  0  0  0  0
   21.4130  -33.6690  -16.1370 C   0  0  0  0  0  3  0  0  0  0  0  0
   22.7530  -33.2050  -15.7780 N   0  0  0  0  0  0  0  0  0  0  0  0
   21.4200  -35.1900  -16.2420 C   0  0  0  0  0  0  0  0  0  0  0  0
   21.2120  -35.9240  -17.3430 N   0  0  0  0  0  0  0  0  0  0  0  0
   21.4210  -37.2390  -16.9630 N   0  0  0  0  0  0  0  0  0  0  0  0
   21.7500  -37.1990  -15.6680 C   0  0  0  0  0  0  0  0  0  0  0  0
   22.1240  -38.4130  -14.8710 C   0  0  0  0  0  1  0  0  0  0  0  0
   21.7350  -35.9440  -15.1650 N   0  0  0  0  0  0  0  0  0  0  0  0
   21.9760  -35.4830  -13.8540 C   0  0  0  0  0  0  0  0  0  0  0  0
   21.4340  -36.2550  -12.3980 S   0  0  0  0  0  0  0  0  0  0  0  0
   22.0570  -34.9550  -11.4210 C   0  0  0  0  0  0  0  0  0  0  0  0
   21.8990  -35.0130   -9.9360 C   0  0  0  0  0  1  0  0  0  0  0  0
   22.6370  -33.9650  -12.1850 C   0  0  0  0  0  0  0  0  0  0  0  0
   23.1870  -32.6960  -11.5840 C   0  0  0  0  0  1  0  0  0  0  0  0
   22.6270  -34.2980  -13.5870 C   0  0  0  0  0  0  0  0  0  0  0  0
   23.2700  -33.4520  -14.6380 C   0  0  0  0  0  0  0  0  0  0  0  0
   24.6040  -32.8750  -14.3720 C   0  0  0  0  0  0  0  0  0  0  0  0
   25.6190  -33.6750  -13.8080 C   0  0  0  0  0  3  0  0  0  0  0  0
   26.8840  -33.1190  -13.5360 C   0  0  0  0  0  3  0  0  0  0  0  0
   27.1340  -31.7640  -13.8190 C   0  0  0  0  0  0  0  0  0  0  0  0
   28.6750  -31.0740  -13.4820 Cl  0  0  0  0  0  0  0  0  0  0  0  0
   26.1200  -30.9650  -14.3720 C   0  0  0  0  0  3  0  0  0  0  0  0
   24.8600  -31.5190  -14.6620 C   0  0  0  0  0  3  0  0  0  0  0  0
  1 13  1  0
  1  2  1  0
  2  3  2  0
  4  6  1  0
  5  9  1  0
  5  4  2  0
  6  2  1  0
  6 11  1  0
  7 45  1  0
  7  4  1  0
  8  1  1  0
 10  5  1  0
 12  7  1  0
 13 19  1  0
 14 22  1  0
 14 15  1  0
 15 16  1  0
 16 39  1  0
 17 16  1  0
 18 17  1  0
 18 14  1  0
 19 18  1  0
 20 19  2  0
 21 24  1  0
 22 21  1  0
 23 22  2  0
 25 31  1  0
 25 21  1  0
 26 37  1  0
 26 27  1  0
 28 27  2  0
 29 26  2  0
 30 29  1  0
 30 31  2  0
 31 28  1  0
 32 33  1  0
 33 37  2  0
 33 34  1  0
 34 35  1  0
 36 35  1  0
 37 36  1  0
 38 34  1  0
 40 39  1  0
 41 44  1  1
 41 13  1  0
 42 41  1  0
 43 41  1  0
 46 48  1  0
 46 45  1  0
 47 46  2  0
 48 51  1  0
 49 47  1  0
 50 47  1  0
 52 53  2  0
 54 52  1  0
 54 48  1  0
 55 54  1  0
 56 52  1  0
 57 56  1  0
 57 58  1  0
 58 72  2  0
 59 57  1  0
 59 64  1  0
 60 61  1  0
 60 59  2  0
 61 62  2  0
 62 64  1  0
 62 63  1  0
 64 65  1  0
 65 71  2  0
 65 66  1  0
 66 67  1  0
 67 68  1  0
 69 70  1  0
 69 67  2  0
 71 69  1  0
 72 73  1  0
 72 71  1  0
 73 74  1  0
 74 75  2  0
 76 75  1  0
 76 77  1  0
 78 76  2  0
 79 78  1  0
 79 73  2  0
M  ISO  4   2 101   6 101  52 100  54 100
M  END
>  <TORSDO>  (93) 
F 14

>  <SCORE>  (93) 
-14.643

>  <name>  (93) 
92

>  <ligand_id>  (93) 
92

>  <original_smiles>  (93) 
[H]OC1([H])C([H])([H])N(C(=O)C([H])(N([H])C(=O)N([H])C(N([H])[H])=[N+]([H])C([H])([H])C(N([H])[H])=[N+]([H])N([H])C(=O)C([H])([H])C2([H])N=C(c3c([H])c([H])c(Cl)c([H])c3[H])c3c(sc(C([H])([H])[H])c3C([H])([H])[H])-n3c(C([H])([H])[H])nnc32)C(C([H])([H])[H])(C([H])([H])[H])C([H])([H])[H])C([H])(C(=O)N([H])C([H])([H])c2c([H])c([H])c(C3=C(C([H])([H])[H])N([H])C([H])([H])S3)c([H])c2[H])C1([H])[H]

>  <smiles>  (93) 
[H]OC1([H])C([H])([H])N(C(=O)C([H])(N([H])C(=O)N([H])C(N([H])[H])=[N+]([H])C([H])([H])C(N([H])[H])=[N+]([H])N([H])C(=O)C([H])([H])C2([H])N=C(c3c([H])c([H])c(Cl)c([H])c3[H])c3c(sc(C([H])([H])[H])c3C([H])([H])[H])-n3c(C([H])([H])[H])nnc32)C(C([H])([H])[H])(C([H])([H])[H])C([H])([H])[H])C([H])(C(=O)N([H])C([H])([H])c2c([H])c([H])c(C3=C(C([H])([H])[H])N([H])C([H])([H])S3)c([H])c2[H])C1([H])[H]

$$$$
93:0:0
     RDKit          3D

 80 86  0  0  1  0  0  0  0  0999 V2000
   25.2430  -27.5680  -15.9020 C   0  0  0  0  0  3  0  0  0  0  0  0
   25.1590  -27.8630  -18.3340 C   0  0  0  0  0  0  0  0  0  0  0  0
   23.8140  -27.9620  -15.6160 C   0  0  0  0  0  1  0  0  0  0  0  0
   25.8840  -28.0150  -19.4540 N   0  0  0  0  0  4  0  0  0  0  0  0
   23.8200  -27.9950  -18.4470 N   0  0  0  0  0  0  0  0  0  0  0  0
   25.9780  -27.2030  -14.8210 N   0  0  0  0  0  0  0  0  0  0  0  0
   25.7850  -27.5810  -17.1540 N   0  0  0  0  0  0  0  0  0  0  0  0
   25.4310  -28.2170  -20.3300 H   0  0  0  0  0  0  0  0  0  0  0  0
   26.8920  -27.9390  -19.4740 H   0  0  0  0  0  0  0  0  0  0  0  0
   23.2640  -27.7890  -17.6310 H   0  0  0  0  0  0  0  0  0  0  0  0
   25.5770  -27.1380  -13.8920 H   0  0  0  0  0  0  0  0  0  0  0  0
   26.7750  -27.4040  -17.2050 H   0  0  0  0  0  0  0  0  0  0  0  0
   27.1680  -26.4900  -14.9430 O   0  0  0  0  0  0  0  0  0  0  0  0
   26.0370  -24.6510  -15.4910 N   0  0  0  0  0  0  0  0  0  0  0  0
   26.9320  -25.1960  -14.5940 C   0  0  0  0  0  0  0  0  0  0  0  0
   27.3820  -24.6350  -13.5950 O   0  0  0  0  0  0  0  0  0  0  0  0
   25.8820  -25.1660  -16.3390 H   0  0  0  0  0  0  0  0  0  0  0  0
   25.0980  -23.5680  -15.2510 C   0  0  0  0  0  3  0  0  0  0  0  0
   21.9880  -23.9910  -12.8690 C   0  0  0  0  0  3  0  0  0  0  0  0
   21.5310  -22.8070  -12.0020 C   0  0  0  0  0  2  0  0  0  0  0  0
   22.7980  -22.0150  -11.7500 C   0  0  0  0  0  3  0  0  0  0  0  0
   23.6660  -22.2550  -12.9830 C   0  0  0  0  0  2  0  0  0  0  0  0
   23.1840  -23.5020  -13.5850 N   0  0  0  0  0  0  0  0  0  0  0  0
   23.8370  -24.1790  -14.5600 C   0  0  0  0  0  0  0  0  0  0  0  0
   23.4940  -25.3210  -14.8830 O   0  0  0  0  0  0  0  0  0  0  0  0
   20.0220  -25.3920  -13.2270 N   0  0  0  0  0  0  0  0  0  0  0  0
   20.8190  -24.4540  -13.7540 C   0  0  0  0  0  0  0  0  0  0  0  0
   20.6130  -23.9350  -14.8530 O   0  0  0  0  0  0  0  0  0  0  0  0
   20.2740  -25.7760  -12.3270 H   0  0  0  0  0  0  0  0  0  0  0  0
   18.7550  -25.8320  -13.7960 C   0  0  0  0  0  2  0  0  0  0  0  0
   15.4070  -23.2770  -12.6890 C   0  0  0  0  0  0  0  0  0  0  0  0
   16.4490  -23.5180  -11.7700 C   0  0  0  0  0  3  0  0  0  0  0  0
   17.5330  -24.3390  -12.1250 C   0  0  0  0  0  3  0  0  0  0  0  0
   15.4630  -23.8650  -13.9700 C   0  0  0  0  0  3  0  0  0  0  0  0
   16.5490  -24.6880  -14.3250 C   0  0  0  0  0  3  0  0  0  0  0  0
   17.5900  -24.9300  -13.4050 C   0  0  0  0  0  0  0  0  0  0  0  0
   12.2750  -23.7440  -13.3100 C   0  0  0  0  0  1  0  0  0  0  0  0
   12.9410  -22.6270  -12.5300 C   0  0  0  0  0  0  0  0  0  0  0  0
   12.1290  -21.6820  -11.9370 N   0  0  0  0  0  0  0  0  0  0  0  0
   12.7730  -20.7590  -11.0100 C   0  0  0  0  0  2  0  0  0  0  0  0
   14.5390  -21.0220  -11.3260 S   0  0  0  0  0  0  0  0  0  0  0  0
   14.2450  -22.4770  -12.2670 C   0  0  0  0  0  0  0  0  0  0  0  0
   11.1140  -21.7300  -11.9560 H   0  0  0  0  0  0  0  0  0  0  0  0
   23.4710  -22.5140  -10.6060 O   0  0  0  0  0  0  0  0  0  0  0  0
   23.6680  -23.4350  -10.7480 H   0  0  0  0  0  0  0  0  0  0  0  0
   24.8020  -22.9280  -16.6510 C   0  0  1  0  0  0  0  0  0  0  0  0
   26.0920  -22.2450  -17.1610 C   0  0  0  0  0  1  0  0  0  0  0  0
   24.3480  -23.9560  -17.7180 C   0  0  0  0  0  1  0  0  0  0  0  0
   23.7200  -21.8340  -16.5510 C   0  0  0  0  0  1  0  0  0  0  0  0
   23.0440  -28.4670  -19.6120 C   0  0  0  0  0  2  0  0  0  0  0  0
   21.5300  -28.1930  -19.4730 C   0  0  0  0  0  2  0  0  0  0  0  0
   20.8190  -28.8460  -18.2660 C   0  0  0  0  0  2  0  0  0  0  0  0
   20.6370  -31.0880  -17.2010 C   0  0  0  0  0  0  0  0  0  0  0  0
   20.2310  -30.6350  -16.1260 O   0  0  0  0  0  0  0  0  0  0  0  0
   20.9250  -30.3040  -18.2510 N   0  0  0  0  0  0  0  0  0  0  0  0
   21.2320  -30.7600  -19.1020 H   0  0  0  0  0  0  0  0  0  0  0  0
   20.8670  -32.5960  -17.3800 C   0  0  0  0  0  2  0  0  0  0  0  0
   21.3700  -33.3250  -16.1050 C   0  0  0  0  0  3  0  0  0  0  0  0
   22.7300  -32.8820  -15.7870 N   0  0  0  0  0  0  0  0  0  0  0  0
   21.3450  -34.8410  -16.2230 C   0  0  0  0  0  0  0  0  0  0  0  0
   21.0930  -35.5540  -17.3290 N   0  0  0  0  0  0  0  0  0  0  0  0
   21.2660  -36.8770  -16.9700 N   0  0  0  0  0  0  0  0  0  0  0  0
   21.6210  -36.8620  -15.6820 C   0  0  0  0  0  0  0  0  0  0  0  0
   21.9690  -38.0960  -14.9070 C   0  0  0  0  0  1  0  0  0  0  0  0
   21.6580  -35.6140  -15.1640 N   0  0  0  0  0  0  0  0  0  0  0  0
   21.9410  -35.1690  -13.8580 C   0  0  0  0  0  0  0  0  0  0  0  0
   21.4030  -35.9320  -12.3970 S   0  0  0  0  0  0  0  0  0  0  0  0
   22.0910  -34.6610  -11.4270 C   0  0  0  0  0  0  0  0  0  0  0  0
   21.9630  -34.7220   -9.9390 C   0  0  0  0  0  1  0  0  0  0  0  0
   22.6880  -33.6860  -12.1980 C   0  0  0  0  0  0  0  0  0  0  0  0
   23.2970  -32.4440  -11.6000 C   0  0  0  0  0  1  0  0  0  0  0  0
   22.6360  -34.0060  -13.6020 C   0  0  0  0  0  0  0  0  0  0  0  0
   23.2800  -33.1690  -14.6650 C   0  0  0  0  0  0  0  0  0  0  0  0
   24.6470  -32.6570  -14.4210 C   0  0  0  0  0  0  0  0  0  0  0  0
   25.6290  -33.4770  -13.8260 C   0  0  0  0  0  3  0  0  0  0  0  0
   26.9150  -32.9650  -13.5690 C   0  0  0  0  0  3  0  0  0  0  0  0
   27.2250  -31.6370  -13.9090 C   0  0  0  0  0  0  0  0  0  0  0  0
   28.7970  -31.0010  -13.5940 Cl  0  0  0  0  0  0  0  0  0  0  0  0
   26.2530  -30.8220  -14.5100 C   0  0  0  0  0  3  0  0  0  0  0  0
   24.9670  -31.3320  -14.7670 C   0  0  0  0  0  3  0  0  0  0  0  0
  1  3  1  0
  1  6  1  0
  2  7  1  0
  4  2  2  0
  5  2  1  0
  5 10  1  0
  6 11  1  0
  7  1  1  0
  8  4  1  0
  9  4  1  0
 12  7  1  0
 13  6  1  0
 13 15  1  0
 14 18  1  0
 14 15  1  0
 15 16  2  0
 17 14  1  0
 18 24  1  0
 19 27  1  0
 19 20  1  0
 20 21  1  0
 21 44  1  0
 22 21  1  0
 23 22  1  0
 23 19  1  0
 24 23  1  0
 25 24  2  0
 26 29  1  0
 27 26  1  0
 28 27  2  0
 30 36  1  0
 30 26  1  0
 31 42  1  0
 31 32  1  0
 33 32  2  0
 34 31  2  0
 35 34  1  0
 35 36  2  0
 36 33  1  0
 37 38  1  0
 38 42  2  0
 38 39  1  0
 39 40  1  0
 41 40  1  0
 42 41  1  0
 43 39  1  0
 45 44  1  0
 46 49  1  1
 46 18  1  0
 47 46  1  0
 48 46  1  0
 50 51  1  0
 50  5  1  0
 51 52  1  0
 52 55  1  0
 53 54  2  0
 55 53  1  0
 56 55  1  0
 57 53  1  0
 58 57  1  0
 58 59  1  0
 59 73  2  0
 60 58  1  0
 60 65  1  0
 61 62  1  0
 61 60  2  0
 62 63  2  0
 63 65  1  0
 63 64  1  0
 65 66  1  0
 66 72  2  0
 66 67  1  0
 67 68  1  0
 68 69  1  0
 70 71  1  0
 70 68  2  0
 72 70  1  0
 73 74  1  0
 73 72  1  0
 74 75  1  0
 75 76  2  0
 77 78  1  0
 77 76  1  0
 79 77  2  0
 80 79  1  0
 80 74  2  0
M  ISO  4  13 101  15 101  53 100  55 100
M  END
>  <TORSDO>  (94) 
F 17

>  <SCORE>  (94) 
-13.582

>  <name>  (94) 
93

>  <ligand_id>  (94) 
93

>  <original_smiles>  (94) 
[H]OC1([H])C([H])([H])N(C(=O)C([H])(N([H])C(=O)O[N+]([H])=C(N([H])C(N([H])C([H])([H])C([H])([H])C([H])([H])N([H])C(=O)C([H])([H])C2([H])N=C(c3c([H])c([H])c(Cl)c([H])c3[H])c3c(sc(C([H])([H])[H])c3C([H])([H])[H])-n3c(C([H])([H])[H])nnc32)=[N+]([H])[H])C([H])([H])[H])C(C([H])([H])[H])(C([H])([H])[H])C([H])([H])[H])C([H])(C(=O)N([H])C([H])([H])c2c([H])c([H])c(C3=C(C([H])([H])[H])N([H])C([H])([H])S3)c([H])c2[H])C1([H])[H]

>  <smiles>  (94) 
[H]OC1([H])C([H])([H])N(C(=O)C([H])(N([H])C(=O)O[N+]([H])=C(N([H])C(N([H])C([H])([H])C([H])([H])C([H])([H])N([H])C(=O)C([H])([H])C2([H])N=C(c3c([H])c([H])c(Cl)c([H])c3[H])c3c(sc(C([H])([H])[H])c3C([H])([H])[H])-n3c(C([H])([H])[H])nnc32)=[N+]([H])[H])C([H])([H])[H])C(C([H])([H])[H])(C([H])([H])[H])C([H])([H])[H])C([H])(C(=O)N([H])C([H])([H])c2c([H])c([H])c(C3=C(C([H])([H])[H])N([H])C([H])([H])S3)c([H])c2[H])C1([H])[H]

$$$$
94:0:0
     RDKit          3D

 74 81  0  0  1  0  0  0  0  0999 V2000
   26.5340  -27.2820  -15.8690 C   0  0  0  0  0  3  0  0  0  0  0  0
   27.1470  -28.2460  -16.8520 C   0  0  0  0  0  2  0  0  0  0  0  0
   25.0040  -27.4880  -16.0030 C   0  0  0  0  0  2  0  0  0  0  0  0
   26.1090  -28.3800  -17.9820 C   0  0  0  0  0  2  0  0  0  0  0  0
   24.7030  -28.2030  -17.3520 C   0  0  0  0  0  3  0  0  0  0  0  0
   27.2690  -26.4720  -15.1510 N   0  0  0  0  0  2  0  0  0  0  0  0
   25.8780  -24.6850  -15.2810 N   0  0  0  0  0  0  0  0  0  0  0  0
   26.8240  -25.2770  -14.5560 C   0  0  0  0  0  0  0  0  0  0  0  0
   27.3040  -24.7240  -13.5570 O   0  0  0  0  0  0  0  0  0  0  0  0
   25.6190  -25.1570  -16.1320 H   0  0  0  0  0  0  0  0  0  0  0  0
   25.0130  -23.5570  -14.9930 C   0  0  0  0  0  3  0  0  0  0  0  0
   21.8070  -23.7990  -12.7330 C   0  0  0  0  0  3  0  0  0  0  0  0
   21.3090  -22.5560  -11.9830 C   0  0  0  0  0  2  0  0  0  0  0  0
   22.5610  -21.7400  -11.7370 C   0  0  0  0  0  3  0  0  0  0  0  0
   23.4850  -22.0690  -12.9070 C   0  0  0  0  0  2  0  0  0  0  0  0
   23.0340  -23.3620  -13.4290 N   0  0  0  0  0  0  0  0  0  0  0  0
   23.7190  -24.1150  -14.3210 C   0  0  0  0  0  0  0  0  0  0  0  0
   23.3580  -25.2660  -14.5810 O   0  0  0  0  0  0  0  0  0  0  0  0
   19.9050  -25.2840  -13.0890 N   0  0  0  0  0  0  0  0  0  0  0  0
   20.6820  -24.3420  -13.6310 C   0  0  0  0  0  0  0  0  0  0  0  0
   20.4940  -23.8780  -14.7590 O   0  0  0  0  0  0  0  0  0  0  0  0
   20.1430  -25.6230  -12.1670 H   0  0  0  0  0  0  0  0  0  0  0  0
   18.6710  -25.7930  -13.6760 C   0  0  0  0  0  2  0  0  0  0  0  0
   15.1990  -23.3470  -12.7240 C   0  0  0  0  0  0  0  0  0  0  0  0
   16.2230  -23.5250  -11.7710 C   0  0  0  0  0  3  0  0  0  0  0  0
   17.3480  -24.3110  -12.0770 C   0  0  0  0  0  3  0  0  0  0  0  0
   15.3140  -23.9620  -13.9880 C   0  0  0  0  0  3  0  0  0  0  0  0
   16.4400  -24.7500  -14.2940 C   0  0  0  0  0  3  0  0  0  0  0  0
   17.4620  -24.9290  -13.3400 C   0  0  0  0  0  0  0  0  0  0  0  0
   12.1080  -23.9480  -13.4280 C   0  0  0  0  0  1  0  0  0  0  0  0
   12.7050  -22.7900  -12.6520 C   0  0  0  0  0  0  0  0  0  0  0  0
   11.8400  -21.8670  -12.1010 N   0  0  0  0  0  0  0  0  0  0  0  0
   12.4200  -20.9020  -11.1740 C   0  0  0  0  0  2  0  0  0  0  0  0
   14.2030  -21.1010  -11.4340 S   0  0  0  0  0  0  0  0  0  0  0  0
   13.9950  -22.5850  -12.3520 C   0  0  0  0  0  0  0  0  0  0  0  0
   10.8290  -21.9560  -12.1490 H   0  0  0  0  0  0  0  0  0  0  0  0
   23.1850  -22.1470  -10.5300 O   0  0  0  0  0  0  0  0  0  0  0  0
   23.4000  -23.0720  -10.5990 H   0  0  0  0  0  0  0  0  0  0  0  0
   24.7560  -22.8610  -16.3820 C   0  0  1  0  0  0  0  0  0  0  0  0
   26.0760  -22.2170  -16.8690 C   0  0  0  0  0  1  0  0  0  0  0  0
   24.2740  -23.8400  -17.4870 C   0  0  0  0  0  1  0  0  0  0  0  0
   23.7160  -21.7280  -16.2680 C   0  0  0  0  0  1  0  0  0  0  0  0
   23.8570  -29.5170  -17.3120 C   0  0  0  0  0  0  0  0  0  0  0  0
   22.5020  -29.4830  -17.2840 N   0  0  0  0  0  0  0  0  0  0  0  0
   24.4390  -30.6010  -17.4050 O   0  0  0  0  0  0  0  0  0  0  0  0
   21.9220  -28.6550  -17.2550 H   0  0  0  0  0  0  0  0  0  0  0  0
   20.8210  -31.2600  -16.8970 C   0  0  0  0  0  0  0  0  0  0  0  0
   20.1730  -30.6740  -16.0250 O   0  0  0  0  0  0  0  0  0  0  0  0
   21.7760  -30.6710  -17.6560 N   0  0  0  0  0  0  0  0  0  0  0  0
   22.3600  -31.2310  -18.2650 H   0  0  0  0  0  0  0  0  0  0  0  0
   20.7260  -32.7930  -17.0330 C   0  0  0  0  0  2  0  0  0  0  0  0
   21.2880  -33.4960  -15.7640 C   0  0  0  0  0  3  0  0  0  0  0  0
   22.6590  -33.0380  -15.5280 N   0  0  0  0  0  0  0  0  0  0  0  0
   21.2680  -35.0150  -15.7950 C   0  0  0  0  0  0  0  0  0  0  0  0
   20.9830  -35.7960  -16.8450 N   0  0  0  0  0  0  0  0  0  0  0  0
   21.1970  -37.0930  -16.4170 N   0  0  0  0  0  0  0  0  0  0  0  0
   21.6060  -36.9950  -15.1480 C   0  0  0  0  0  0  0  0  0  0  0  0
   22.0120  -38.1760  -14.3190 C   0  0  0  0  0  1  0  0  0  0  0  0
   21.6420  -35.7180  -14.7070 N   0  0  0  0  0  0  0  0  0  0  0  0
   21.9740  -35.1940  -13.4410 C   0  0  0  0  0  0  0  0  0  0  0  0
   21.5120  -35.8800  -11.9160 S   0  0  0  0  0  0  0  0  0  0  0  0
   22.2160  -34.5420  -11.0500 C   0  0  0  0  0  0  0  0  0  0  0  0
   22.1510  -34.5170   -9.5570 C   0  0  0  0  0  1  0  0  0  0  0  0
   22.7630  -33.6050  -11.8990 C   0  0  0  0  0  0  0  0  0  0  0  0
   23.3740  -32.3180  -11.4030 C   0  0  0  0  0  1  0  0  0  0  0  0
   22.6590  -34.0090  -13.2790 C   0  0  0  0  0  0  0  0  0  0  0  0
   23.2480  -33.2290  -14.4110 C   0  0  0  0  0  0  0  0  0  0  0  0
   24.6040  -32.6660  -14.2520 C   0  0  0  0  0  0  0  0  0  0  0  0
   25.6550  -33.4720  -13.7640 C   0  0  0  0  0  3  0  0  0  0  0  0
   26.9420  -32.9250  -13.5960 C   0  0  0  0  0  3  0  0  0  0  0  0
   27.1810  -31.5760  -13.9150 C   0  0  0  0  0  0  0  0  0  0  0  0
   28.7540  -30.9020  -13.7160 Cl  0  0  0  0  0  0  0  0  0  0  0  0
   26.1320  -30.7710  -14.3860 C   0  0  0  0  0  3  0  0  0  0  0  0
   24.8450  -31.3110  -14.5530 C   0  0  0  0  0  3  0  0  0  0  0  0
  1  6  1  0
  2  1  1  0
  3  1  1  0
  4  5  1  0
  4  2  1  0
  5 43  1  0
  5  3  1  0
  6  8  1  0
  7 11  1  0
  7  8  1  0
  8  9  2  0
 10  7  1  0
 11 17  1  0
 12 20  1  0
 12 13  1  0
 13 14  1  0
 14 37  1  0
 15 14  1  0
 16 15  1  0
 16 12  1  0
 17 16  1  0
 18 17  2  0
 19 22  1  0
 20 19  1  0
 21 20  2  0
 23 29  1  0
 23 19  1  0
 24 35  1  0
 24 25  1  0
 26 25  2  0
 27 24  2  0
 28 27  1  0
 28 29  2  0
 29 26  1  0
 30 31  1  0
 31 35  2  0
 31 32  1  0
 32 33  1  0
 34 33  1  0
 35 34  1  0
 36 32  1  0
 38 37  1  0
 39 42  1  1
 39 11  1  0
 40 39  1  0
 41 39  1  0
 43 44  1  0
 44 46  1  0
 45 43  2  0
 47 48  2  0
 49 44  1  0
 49 47  1  0
 50 49  1  0
 51 47  1  0
 52 51  1  0
 52 53  1  0
 53 67  2  0
 54 52  1  0
 54 59  1  0
 55 56  1  0
 55 54  2  0
 56 57  2  0
 57 59  1  0
 57 58  1  0
 59 60  1  0
 60 66  2  0
 60 61  1  0
 61 62  1  0
 62 63  1  0
 64 65  1  0
 64 62  2  0
 66 64  1  0
 67 68  1  0
 67 66  1  0
 68 69  1  0
 69 70  2  0
 71 72  1  0
 71 70  1  0
 73 71  2  0
 74 73  1  0
 74 68  2  0
M  ISO  4   6 101   8 101  47 100  49 100
M  END
>  <TORSDO>  (95) 
F 14

>  <SCORE>  (95) 
-12.888

>  <name>  (95) 
94

>  <ligand_id>  (95) 
94

>  <original_smiles>  (95) 
[H]OC1([H])C([H])([H])N(C(=O)C([H])(N([H])C(=O)N=C2C([H])([H])C([H])([H])C([H])(C(=O)N([H])N([H])C(=O)C([H])([H])C3([H])N=C(c4c([H])c([H])c(Cl)c([H])c4[H])c4c(sc(C([H])([H])[H])c4C([H])([H])[H])-n4c(C([H])([H])[H])nnc43)C2([H])[H])C(C([H])([H])[H])(C([H])([H])[H])C([H])([H])[H])C([H])(C(=O)N([H])C([H])([H])c2c([H])c([H])c(C3=C(C([H])([H])[H])N([H])C([H])([H])S3)c([H])c2[H])C1([H])[H]

>  <smiles>  (95) 
[H]OC1([H])C([H])([H])N(C(=O)C([H])(N([H])C(=O)N=C2C([H])([H])C([H])([H])C([H])(C(=O)N([H])N([H])C(=O)C([H])([H])C3([H])N=C(c4c([H])c([H])c(Cl)c([H])c4[H])c4c(sc(C([H])([H])[H])c4C([H])([H])[H])-n4c(C([H])([H])[H])nnc43)C2([H])[H])C(C([H])([H])[H])(C([H])([H])[H])C([H])([H])[H])C([H])(C(=O)N([H])C([H])([H])c2c([H])c([H])c(C3=C(C([H])([H])[H])N([H])C([H])([H])S3)c([H])c2[H])C1([H])[H]

$$$$
95:0:0
     RDKit          3D

 77 84  0  0  1  0  0  0  0  0999 V2000
   26.2860  -28.4530  -16.9750 C   0  0  0  0  0  0  0  0  0  0  0  0
   24.0420  -28.3300  -15.9800 C   0  0  0  0  0  2  0  0  0  0  0  0
   24.7430  -27.0060  -15.9070 C   0  0  0  0  0  2  0  0  0  0  0  0
   24.8890  -29.1830  -16.9330 C   0  0  0  0  0  3  0  0  0  0  0  0
   26.1710  -26.9780  -16.4640 C   0  0  0  0  0  3  0  0  0  0  0  0
   27.3540  -28.9940  -17.2780 O   0  0  0  0  0  0  0  0  0  0  0  0
   25.8660  -24.5210  -15.4320 N   0  0  0  0  0  0  0  0  0  0  0  0
   26.8180  -25.1650  -14.7610 C   0  0  0  0  0  0  0  0  0  0  0  0
   27.3410  -24.6990  -13.7410 O   0  0  0  0  0  0  0  0  0  0  0  0
   27.0890  -26.3560  -15.4120 N   0  0  0  0  0  0  0  0  0  0  0  0
   25.5970  -24.9800  -16.2840 H   0  0  0  0  0  0  0  0  0  0  0  0
   27.9380  -26.8530  -15.1660 H   0  0  0  0  0  0  0  0  0  0  0  0
   24.9480  -23.4420  -15.1110 C   0  0  0  0  0  3  0  0  0  0  0  0
   21.7500  -23.8010  -12.8370 C   0  0  0  0  0  3  0  0  0  0  0  0
   21.2500  -22.6000  -12.0290 C   0  0  0  0  0  2  0  0  0  0  0  0
   22.4920  -21.7780  -11.7590 C   0  0  0  0  0  3  0  0  0  0  0  0
   23.4150  -22.0490  -12.9440 C   0  0  0  0  0  2  0  0  0  0  0  0
   22.9700  -23.3190  -13.5210 N   0  0  0  0  0  0  0  0  0  0  0  0
   23.6570  -24.0240  -14.4410 C   0  0  0  0  0  0  0  0  0  0  0  0
   23.2670  -25.1500  -14.7370 O   0  0  0  0  0  0  0  0  0  0  0  0
   19.8410  -25.2680  -13.2280 N   0  0  0  0  0  0  0  0  0  0  0  0
   20.6170  -24.3140  -13.7480 C   0  0  0  0  0  0  0  0  0  0  0  0
   20.4220  -23.8170  -14.8570 O   0  0  0  0  0  0  0  0  0  0  0  0
   20.0840  -25.6310  -12.3160 H   0  0  0  0  0  0  0  0  0  0  0  0
   18.6080  -25.7700  -13.8240 C   0  0  0  0  0  2  0  0  0  0  0  0
   15.1290  -23.3690  -12.7900 C   0  0  0  0  0  0  0  0  0  0  0  0
   16.1470  -23.5830  -11.8400 C   0  0  0  0  0  3  0  0  0  0  0  0
   17.2710  -24.3600  -12.1730 C   0  0  0  0  0  3  0  0  0  0  0  0
   15.2470  -23.9290  -14.0790 C   0  0  0  0  0  3  0  0  0  0  0  0
   16.3750  -24.7070  -14.4110 C   0  0  0  0  0  3  0  0  0  0  0  0
   17.3930  -24.9270  -13.4610 C   0  0  0  0  0  0  0  0  0  0  0  0
   12.0470  -23.9180  -13.5570 C   0  0  0  0  0  1  0  0  0  0  0  0
   12.6390  -22.8000  -12.7210 C   0  0  0  0  0  0  0  0  0  0  0  0
   11.7710  -21.9060  -12.1290 N   0  0  0  0  0  0  0  0  0  0  0  0
   12.3460  -20.9890  -11.1500 C   0  0  0  0  0  2  0  0  0  0  0  0
   14.1330  -21.1800  -11.4010 S   0  0  0  0  0  0  0  0  0  0  0  0
   13.9260  -22.6140  -12.3950 C   0  0  0  0  0  0  0  0  0  0  0  0
   10.7600  -21.9890  -12.1870 H   0  0  0  0  0  0  0  0  0  0  0  0
   23.1300  -22.2180  -10.5680 O   0  0  0  0  0  0  0  0  0  0  0  0
   23.3450  -23.1400  -10.6500 H   0  0  0  0  0  0  0  0  0  0  0  0
   24.6680  -22.7330  -16.4980 C   0  0  1  0  0  0  0  0  0  0  0  0
   25.9790  -22.0510  -16.9710 C   0  0  0  0  0  1  0  0  0  0  0  0
   24.2170  -23.6760  -17.6490 C   0  0  0  0  0  1  0  0  0  0  0  0
   23.5980  -21.6270  -16.3700 C   0  0  0  0  0  1  0  0  0  0  0  0
   23.0790  -28.9320  -18.6280 C   0  0  0  0  0  0  0  0  0  0  0  0
   24.1000  -29.6440  -18.1130 N   0  0  0  0  0  0  0  0  0  0  0  0
   23.2770  -27.8140  -19.1180 O   0  0  0  0  0  0  0  0  0  0  0  0
   23.8710  -30.6330  -18.0320 H   0  0  0  0  0  0  0  0  0  0  0  0
   21.6070  -29.4340  -18.4220 C   0  0  0  0  0  2  0  0  0  0  0  0
   20.7730  -31.4850  -17.1020 C   0  0  0  0  0  0  0  0  0  0  0  0
   20.3050  -30.9060  -16.1120 O   0  0  0  0  0  0  0  0  0  0  0  0
   21.3410  -30.8670  -18.1650 N   0  0  0  0  0  0  0  0  0  0  0  0
   21.4230  -31.4710  -18.9700 H   0  0  0  0  0  0  0  0  0  0  0  0
   20.7780  -33.0240  -17.1490 C   0  0  0  0  0  2  0  0  0  0  0  0
   21.3420  -33.7030  -15.8650 C   0  0  0  0  0  3  0  0  0  0  0  0
   22.6900  -33.2120  -15.5480 N   0  0  0  0  0  0  0  0  0  0  0  0
   21.3680  -35.2240  -15.9390 C   0  0  0  0  0  0  0  0  0  0  0  0
   21.1690  -35.9830  -17.0270 N   0  0  0  0  0  0  0  0  0  0  0  0
   21.3790  -37.2880  -16.6180 N   0  0  0  0  0  0  0  0  0  0  0  0
   21.7020  -37.2180  -15.3260 C   0  0  0  0  0  0  0  0  0  0  0  0
   22.0810  -38.4130  -14.5040 C   0  0  0  0  0  1  0  0  0  0  0  0
   21.6920  -35.9510  -14.8500 N   0  0  0  0  0  0  0  0  0  0  0  0
   21.9370  -35.4520  -13.5560 C   0  0  0  0  0  0  0  0  0  0  0  0
   21.4080  -36.1810  -12.0770 S   0  0  0  0  0  0  0  0  0  0  0  0
   22.0390  -34.8480  -11.1480 C   0  0  0  0  0  0  0  0  0  0  0  0
   21.8890  -34.8630   -9.6620 C   0  0  0  0  0  1  0  0  0  0  0  0
   22.6140  -33.8830  -11.9450 C   0  0  0  0  0  0  0  0  0  0  0  0
   23.1810  -32.5940  -11.3960 C   0  0  0  0  0  1  0  0  0  0  0  0
   22.5900  -34.2600  -13.3320 C   0  0  0  0  0  0  0  0  0  0  0  0
   23.2350  -33.4560  -14.4090 C   0  0  0  0  0  0  0  0  0  0  0  0
   24.5830  -32.9130  -14.1440 C   0  0  0  0  0  0  0  0  0  0  0  0
   25.6170  -33.7120  -13.6120 C   0  0  0  0  0  3  0  0  0  0  0  0
   26.8740  -33.1340  -13.3400 C   0  0  0  0  0  3  0  0  0  0  0  0
   27.1070  -31.7640  -13.5890 C   0  0  0  0  0  0  0  0  0  0  0  0
   28.6540  -31.0630  -13.2810 Cl  0  0  0  0  0  0  0  0  0  0  0  0
   26.0580  -30.9650  -14.0730 C   0  0  0  0  0  3  0  0  0  0  0  0
   24.8040  -31.5520  -14.3490 C   0  0  0  0  0  3  0  0  0  0  0  0
  1  4  1  0
  1  5  1  0
  2  3  1  0
  4 46  1  0
  4  2  1  0
  5  3  1  0
  5 10  1  0
  6  1  2  0
  7 13  1  0
  7  8  1  0
  8  9  2  0
 10 12  1  0
 10  8  1  0
 11  7  1  0
 13 19  1  0
 14 22  1  0
 14 15  1  0
 15 16  1  0
 16 39  1  0
 17 16  1  0
 18 17  1  0
 18 14  1  0
 19 18  1  0
 20 19  2  0
 21 24  1  0
 22 21  1  0
 23 22  2  0
 25 31  1  0
 25 21  1  0
 26 37  1  0
 26 27  1  0
 28 27  2  0
 29 26  2  0
 30 29  1  0
 30 31  2  0
 31 28  1  0
 32 33  1  0
 33 37  2  0
 33 34  1  0
 34 35  1  0
 36 35  1  0
 37 36  1  0
 38 34  1  0
 40 39  1  0
 41 44  1  1
 41 13  1  0
 42 41  1  0
 43 41  1  0
 45 49  1  0
 45 46  1  0
 46 48  1  0
 47 45  2  0
 49 52  1  0
 50 51  2  0
 52 50  1  0
 53 52  1  0
 54 50  1  0
 55 54  1  0
 55 56  1  0
 56 70  2  0
 57 55  1  0
 57 62  1  0
 58 59  1  0
 58 57  2  0
 59 60  2  0
 60 62  1  0
 60 61  1  0
 62 63  1  0
 63 69  2  0
 63 64  1  0
 64 65  1  0
 65 66  1  0
 67 68  1  0
 67 65  2  0
 69 67  1  0
 70 71  1  0
 70 69  1  0
 71 72  1  0
 72 73  2  0
 74 73  1  0
 74 75  1  0
 76 74  2  0
 77 71  2  0
 77 76  1  0
M  ISO  4   8 101  10 101  50 100  52 100
M  END
>  <TORSDO>  (96) 
F 15

>  <SCORE>  (96) 
-12.548

>  <name>  (96) 
95

>  <ligand_id>  (96) 
95

>  <original_smiles>  (96) 
[H]OC1([H])C([H])([H])N(C(=O)C([H])(N([H])C(=O)N([H])C2([H])C(=O)C([H])(N([H])C(=O)C([H])([H])N([H])C(=O)C([H])([H])C3([H])N=C(c4c([H])c([H])c(Cl)c([H])c4[H])c4c(sc(C([H])([H])[H])c4C([H])([H])[H])-n4c(C([H])([H])[H])nnc43)C([H])([H])C2([H])[H])C(C([H])([H])[H])(C([H])([H])[H])C([H])([H])[H])C([H])(C(=O)N([H])C([H])([H])c2c([H])c([H])c(C3=C(C([H])([H])[H])N([H])C([H])([H])S3)c([H])c2[H])C1([H])[H]

>  <smiles>  (96) 
[H]OC1([H])C([H])([H])N(C(=O)C([H])(N([H])C(=O)N([H])C2([H])C(=O)C([H])(N([H])C(=O)C([H])([H])N([H])C(=O)C([H])([H])C3([H])N=C(c4c([H])c([H])c(Cl)c([H])c4[H])c4c(sc(C([H])([H])[H])c4C([H])([H])[H])-n4c(C([H])([H])[H])nnc43)C([H])([H])C2([H])[H])C(C([H])([H])[H])(C([H])([H])[H])C([H])([H])[H])C([H])(C(=O)N([H])C([H])([H])c2c([H])c([H])c(C3=C(C([H])([H])[H])N([H])C([H])([H])S3)c([H])c2[H])C1([H])[H]

$$$$
96:0:0
     RDKit          3D

 76 82  0  0  1  0  0  0  0  0999 V2000
   25.9340  -24.6440  -15.4920 N   0  0  0  0  0  0  0  0  0  0  0  0
   26.6980  -25.2340  -14.5870 C   0  0  0  0  0  0  0  0  0  0  0  0
   27.1880  -24.6750  -13.5910 O   0  0  0  0  0  0  0  0  0  0  0  0
   26.2030  -27.2470  -15.9140 C   0  0  0  0  0  0  0  0  0  0  0  0
   26.8300  -26.9550  -17.0660 N   0  0  0  0  0  4  0  0  0  0  0  0
   26.5600  -26.6580  -14.7340 N   0  0  0  0  0  0  0  0  0  0  0  0
   25.1830  -28.1450  -15.9700 N   0  0  0  0  0  0  0  0  0  0  0  0
   25.6980  -25.2110  -16.2940 H   0  0  0  0  0  0  0  0  0  0  0  0
   27.6970  -26.4320  -17.0830 H   0  0  0  0  0  0  0  0  0  0  0  0
   26.5660  -27.3990  -17.9320 H   0  0  0  0  0  0  0  0  0  0  0  0
   26.7830  -27.2880  -13.9790 H   0  0  0  0  0  0  0  0  0  0  0  0
   24.6270  -28.2630  -15.1300 H   0  0  0  0  0  0  0  0  0  0  0  0
   24.9660  -23.5850  -15.2680 C   0  0  0  0  0  3  0  0  0  0  0  0
   21.8740  -23.9680  -12.8460 C   0  0  0  0  0  3  0  0  0  0  0  0
   21.4290  -22.7690  -11.9900 C   0  0  0  0  0  2  0  0  0  0  0  0
   22.7010  -21.9800  -11.7610 C   0  0  0  0  0  3  0  0  0  0  0  0
   23.5610  -22.2480  -12.9970 C   0  0  0  0  0  2  0  0  0  0  0  0
   23.0690  -23.5020  -13.5800 N   0  0  0  0  0  0  0  0  0  0  0  0
   23.7090  -24.1950  -14.5560 C   0  0  0  0  0  0  0  0  0  0  0  0
   23.3550  -25.3360  -14.8770 O   0  0  0  0  0  0  0  0  0  0  0  0
   19.8940  -25.3560  -13.1680 N   0  0  0  0  0  0  0  0  0  0  0  0
   20.6930  -24.4330  -13.7140 C   0  0  0  0  0  0  0  0  0  0  0  0
   20.4810  -23.9230  -14.8160 O   0  0  0  0  0  0  0  0  0  0  0  0
   20.1510  -25.7310  -12.2670 H   0  0  0  0  0  0  0  0  0  0  0  0
   18.6200  -25.7970  -13.7220 C   0  0  0  0  0  2  0  0  0  0  0  0
   15.3010  -23.1860  -12.6620 C   0  0  0  0  0  0  0  0  0  0  0  0
   16.3400  -23.4220  -11.7380 C   0  0  0  0  0  3  0  0  0  0  0  0
   17.4140  -24.2630  -12.0790 C   0  0  0  0  0  3  0  0  0  0  0  0
   15.3500  -23.7960  -13.9330 C   0  0  0  0  0  3  0  0  0  0  0  0
   16.4270  -24.6380  -14.2740 C   0  0  0  0  0  3  0  0  0  0  0  0
   17.4650  -24.8760  -13.3490 C   0  0  0  0  0  0  0  0  0  0  0  0
   12.1650  -23.6310  -13.2760 C   0  0  0  0  0  1  0  0  0  0  0  0
   12.8400  -22.5050  -12.5160 C   0  0  0  0  0  0  0  0  0  0  0  0
   12.0380  -21.5420  -11.9400 N   0  0  0  0  0  0  0  0  0  0  0  0
   12.6940  -20.6080  -11.0310 C   0  0  0  0  0  2  0  0  0  0  0  0
   14.4560  -20.8960  -11.3410 S   0  0  0  0  0  0  0  0  0  0  0  0
   14.1470  -22.3640  -12.2560 C   0  0  0  0  0  0  0  0  0  0  0  0
   11.0240  -21.5790  -11.9570 H   0  0  0  0  0  0  0  0  0  0  0  0
   23.3750  -22.4610  -10.6100 O   0  0  0  0  0  0  0  0  0  0  0  0
   23.5670  -23.3850  -10.7360 H   0  0  0  0  0  0  0  0  0  0  0  0
   24.6660  -22.9800  -16.6840 C   0  0  1  0  0  0  0  0  0  0  0  0
   25.9570  -22.3280  -17.2330 C   0  0  0  0  0  1  0  0  0  0  0  0
   24.2000  -24.0400  -17.7170 C   0  0  0  0  0  1  0  0  0  0  0  0
   23.5960  -21.8720  -16.6060 C   0  0  0  0  0  1  0  0  0  0  0  0
   24.7480  -28.9820  -17.1310 C   0  0  0  0  0  2  0  0  0  0  0  0
   23.3710  -28.6060  -17.7380 C   0  0  0  0  0  2  0  0  0  0  0  0
   20.8750  -28.3660  -17.4640 C   0  0  0  0  0  1  0  0  0  0  0  0
   22.0860  -29.2720  -17.1560 C   0  0  0  0  0  3  0  0  0  0  0  0
   20.9630  -31.5190  -17.0770 C   0  0  0  0  0  0  0  0  0  0  0  0
   20.1670  -31.1280  -16.2250 O   0  0  0  0  0  0  0  0  0  0  0  0
   21.8500  -30.6590  -17.6330 N   0  0  0  0  0  0  0  0  0  0  0  0
   22.5070  -31.0460  -18.2990 H   0  0  0  0  0  0  0  0  0  0  0  0
   21.0950  -33.0370  -17.3300 C   0  0  0  0  0  2  0  0  0  0  0  0
   21.5140  -33.7590  -16.0140 C   0  0  0  0  0  3  0  0  0  0  0  0
   22.8430  -33.2690  -15.6480 N   0  0  0  0  0  0  0  0  0  0  0  0
   21.5310  -35.2790  -16.0490 C   0  0  0  0  0  0  0  0  0  0  0  0
   21.3410  -36.0620  -17.1170 N   0  0  0  0  0  0  0  0  0  0  0  0
   21.5430  -37.3570  -16.6740 N   0  0  0  0  0  0  0  0  0  0  0  0
   21.8460  -37.2570  -15.3770 C   0  0  0  0  0  0  0  0  0  0  0  0
   22.2000  -38.4360  -14.5190 C   0  0  0  0  0  1  0  0  0  0  0  0
   21.8220  -35.9810  -14.9320 N   0  0  0  0  0  0  0  0  0  0  0  0
   22.0330  -35.4580  -13.6390 C   0  0  0  0  0  0  0  0  0  0  0  0
   21.4630  -36.1640  -12.1600 S   0  0  0  0  0  0  0  0  0  0  0  0
   22.0630  -34.8180  -11.2330 C   0  0  0  0  0  0  0  0  0  0  0  0
   21.8770  -34.8030   -9.7510 C   0  0  0  0  0  1  0  0  0  0  0  0
   22.6580  -33.8630  -12.0290 C   0  0  0  0  0  0  0  0  0  0  0  0
   23.2000  -32.5690  -11.4750 C   0  0  0  0  0  1  0  0  0  0  0  0
   22.6750  -34.2610  -13.4130 C   0  0  0  0  0  0  0  0  0  0  0  0
   23.3410  -33.4610  -14.4870 C   0  0  0  0  0  0  0  0  0  0  0  0
   24.6710  -32.8780  -14.2190 C   0  0  0  0  0  0  0  0  0  0  0  0
   25.6750  -33.6630  -13.6130 C   0  0  0  0  0  3  0  0  0  0  0  0
   26.9370  -33.1030  -13.3350 C   0  0  0  0  0  3  0  0  0  0  0  0
   27.1960  -31.7620  -13.6620 C   0  0  0  0  0  0  0  0  0  0  0  0
   28.7320  -31.0560  -13.3280 Cl  0  0  0  0  0  0  0  0  0  0  0  0
   26.1960  -30.9810  -14.2570 C   0  0  0  0  0  3  0  0  0  0  0  0
   24.9310  -31.5310  -14.5390 C   0  0  0  0  0  3  0  0  0  0  0  0
  1 13  1  0
  1  2  1  0
  2  3  2  0
  4  6  1  0
  5  4  2  0
  6  2  1  0
  6 11  1  0
  7  4  1  0
  7 12  1  0
  8  1  1  0
  9  5  1  0
 10  5  1  0
 13 19  1  0
 14 22  1  0
 14 15  1  0
 15 16  1  0
 16 39  1  0
 17 16  1  0
 18 17  1  0
 18 14  1  0
 19 18  1  0
 20 19  2  0
 21 24  1  0
 22 21  1  0
 23 22  2  0
 25 31  1  0
 25 21  1  0
 26 37  1  0
 26 27  1  0
 28 27  2  0
 29 26  2  0
 30 29  1  0
 30 31  2  0
 31 28  1  0
 32 33  1  0
 33 37  2  0
 33 34  1  0
 34 35  1  0
 36 35  1  0
 37 36  1  0
 38 34  1  0
 40 39  1  0
 41 44  1  1
 41 13  1  0
 42 41  1  0
 43 41  1  0
 45  7  1  0
 46 48  1  0
 46 45  1  0
 48 47  1  0
 49 50  2  0
 51 48  1  0
 51 49  1  0
 52 51  1  0
 53 49  1  0
 54 53  1  0
 54 55  1  0
 55 69  2  0
 56 54  1  0
 56 61  1  0
 57 58  1  0
 57 56  2  0
 58 59  2  0
 59 61  1  0
 59 60  1  0
 61 62  1  0
 62 68  2  0
 62 63  1  0
 63 64  1  0
 64 65  1  0
 66 67  1  0
 66 64  2  0
 68 66  1  0
 69 70  1  0
 69 68  1  0
 70 71  1  0
 71 72  2  0
 73 72  1  0
 73 74  1  0
 75 73  2  0
 76 75  1  0
 76 70  2  0
M  ISO  4   2 101   6 101  49 100  51 100
M  END
>  <TORSDO>  (97) 
F 15

>  <SCORE>  (97) 
-14.457

>  <name>  (97) 
96

>  <ligand_id>  (97) 
96

>  <original_smiles>  (97) 
[H]OC1([H])C([H])([H])N(C(=O)C([H])(N([H])C(=O)N([H])C(N([H])[H])=[N+]([H])C([H])([H])C([H])([H])C([H])(N([H])C(=O)C([H])([H])C2([H])N=C(c3c([H])c([H])c(Cl)c([H])c3[H])c3c(sc(C([H])([H])[H])c3C([H])([H])[H])-n3c(C([H])([H])[H])nnc32)C([H])([H])[H])C(C([H])([H])[H])(C([H])([H])[H])C([H])([H])[H])C([H])(C(=O)N([H])C([H])([H])c2c([H])c([H])c(C3=C(C([H])([H])[H])N([H])C([H])([H])S3)c([H])c2[H])C1([H])[H]

>  <smiles>  (97) 
[H]OC1([H])C([H])([H])N(C(=O)C([H])(N([H])C(=O)N([H])C(N([H])[H])=[N+]([H])C([H])([H])C([H])([H])C([H])(N([H])C(=O)C([H])([H])C2([H])N=C(c3c([H])c([H])c(Cl)c([H])c3[H])c3c(sc(C([H])([H])[H])c3C([H])([H])[H])-n3c(C([H])([H])[H])nnc32)C([H])([H])[H])C(C([H])([H])[H])(C([H])([H])[H])C([H])([H])[H])C([H])(C(=O)N([H])C([H])([H])c2c([H])c([H])c(C3=C(C([H])([H])[H])N([H])C([H])([H])S3)c([H])c2[H])C1([H])[H]

$$$$
97:0:0
     RDKit          3D

 79 86  0  0  1  0  0  0  0  0999 V2000
   27.2300  -27.5770  -16.9640 C   0  0  0  0  0  0  0  0  0  0  0  0
   24.8220  -27.7640  -17.1050 C   0  0  0  0  0  2  0  0  0  0  0  0
   25.1840  -26.8420  -15.9550 C   0  0  0  0  0  2  0  0  0  0  0  0
   26.1210  -28.4090  -17.6290 C   0  0  0  0  0  3  0  0  0  0  0  0
   26.6350  -26.3970  -16.2040 C   0  0  0  0  0  3  0  0  0  0  0  0
   28.4280  -27.8470  -17.0540 O   0  0  0  0  0  0  0  0  0  0  0  0
   26.0080  -24.1990  -14.8430 N   0  0  0  0  0  0  0  0  0  0  0  0
   26.9930  -24.8540  -14.2430 C   0  0  0  0  0  0  0  0  0  0  0  0
   27.4990  -24.4890  -13.1760 O   0  0  0  0  0  0  0  0  0  0  0  0
   27.3260  -25.9570  -14.9570 N   0  0  0  0  0  0  0  0  0  0  0  0
   25.6920  -24.6180  -15.7020 H   0  0  0  0  0  0  0  0  0  0  0  0
   28.0840  -26.5370  -14.6220 H   0  0  0  0  0  0  0  0  0  0  0  0
   25.1180  -23.1520  -14.3870 C   0  0  0  0  0  3  0  0  0  0  0  0
   21.6870  -23.6560  -12.5340 C   0  0  0  0  0  3  0  0  0  0  0  0
   20.9200  -22.4310  -12.0160 C   0  0  0  0  0  2  0  0  0  0  0  0
   21.9990  -21.4090  -11.7230 C   0  0  0  0  0  3  0  0  0  0  0  0
   23.1180  -21.7140  -12.7170 C   0  0  0  0  0  2  0  0  0  0  0  0
   22.9290  -23.1110  -13.1230 N   0  0  0  0  0  0  0  0  0  0  0  0
   23.8380  -23.8380  -13.8160 C   0  0  0  0  0  0  0  0  0  0  0  0
   23.6880  -25.0530  -13.9710 O   0  0  0  0  0  0  0  0  0  0  0  0
   20.1070  -25.4680  -12.9420 N   0  0  0  0  0  0  0  0  0  0  0  0
   20.7850  -24.4560  -13.4910 C   0  0  0  0  0  0  0  0  0  0  0  0
   20.6630  -24.1240  -14.6720 O   0  0  0  0  0  0  0  0  0  0  0  0
   20.2880  -25.6870  -11.9710 H   0  0  0  0  0  0  0  0  0  0  0  0
   19.0520  -26.2280  -13.6000 C   0  0  0  0  0  2  0  0  0  0  0  0
   15.1540  -24.3040  -13.3530 C   0  0  0  0  0  0  0  0  0  0  0  0
   16.0680  -24.1920  -12.2850 C   0  0  0  0  0  3  0  0  0  0  0  0
   17.3290  -24.8100  -12.3630 C   0  0  0  0  0  3  0  0  0  0  0  0
   15.5160  -25.0370  -14.5030 C   0  0  0  0  0  3  0  0  0  0  0  0
   16.7800  -25.6540  -14.5800 C   0  0  0  0  0  3  0  0  0  0  0  0
   17.6930  -25.5450  -13.5110 C   0  0  0  0  0  0  0  0  0  0  0  0
   12.2970  -25.5120  -14.2420 C   0  0  0  0  0  1  0  0  0  0  0  0
   12.6120  -24.1770  -13.5980 C   0  0  0  0  0  0  0  0  0  0  0  0
   11.5560  -23.3480  -13.2760 N   0  0  0  0  0  0  0  0  0  0  0  0
   11.8680  -22.1830  -12.4580 C   0  0  0  0  0  2  0  0  0  0  0  0
   13.6780  -22.1090  -12.5170 S   0  0  0  0  0  0  0  0  0  0  0  0
   13.8100  -23.7150  -13.2140 C   0  0  0  0  0  0  0  0  0  0  0  0
   10.5840  -23.6130  -13.4030 H   0  0  0  0  0  0  0  0  0  0  0  0
   22.4980  -21.5800  -10.4050 O   0  0  0  0  0  0  0  0  0  0  0  0
   22.8430  -22.4630  -10.3250 H   0  0  0  0  0  0  0  0  0  0  0  0
   24.8390  -22.2480  -15.6480 C   0  0  1  0  0  0  0  0  0  0  0  0
   26.1320  -21.4780  -16.0090 C   0  0  0  0  0  1  0  0  0  0  0  0
   24.4030  -23.0400  -16.9080 C   0  0  0  0  0  1  0  0  0  0  0  0
   23.7540  -21.1940  -15.3530 C   0  0  0  0  0  1  0  0  0  0  0  0
   26.1880  -28.4590  -19.1750 C   0  0  0  0  0  2  0  0  0  0  0  0
   24.8110  -28.6450  -19.8320 C   0  0  0  0  0  0  0  0  0  0  0  0
   23.8320  -27.8140  -19.4380 N   0  0  0  0  0  0  0  0  0  0  0  0
   24.6420  -29.5180  -20.6830 O   0  0  0  0  0  0  0  0  0  0  0  0
   24.0810  -27.1190  -18.7500 H   0  0  0  0  0  0  0  0  0  0  0  0
   22.4370  -27.7960  -19.8730 C   0  0  0  0  0  2  0  0  0  0  0  0
   21.5760  -28.8950  -19.2180 C   0  0  0  0  0  2  0  0  0  0  0  0
   20.8450  -29.5400  -16.9120 C   0  0  0  0  0  0  0  0  0  0  0  0
   20.6640  -29.2440  -15.7270 O   0  0  0  0  0  0  0  0  0  0  0  0
   21.2080  -28.6140  -17.8240 N   0  0  0  0  0  0  0  0  0  0  0  0
   21.3100  -27.6610  -17.5040 H   0  0  0  0  0  0  0  0  0  0  0  0
   20.7150  -31.0090  -17.3530 C   0  0  0  0  0  2  0  0  0  0  0  0
   21.3110  -32.0170  -16.3470 C   0  0  0  0  0  3  0  0  0  0  0  0
   22.7350  -31.7490  -16.1340 N   0  0  0  0  0  0  0  0  0  0  0  0
   21.1190  -33.4610  -16.7780 C   0  0  0  0  0  0  0  0  0  0  0  0
   20.6770  -33.8930  -17.9660 N   0  0  0  0  0  0  0  0  0  0  0  0
   20.7610  -35.2700  -17.9180 N   0  0  0  0  0  0  0  0  0  0  0  0
   21.2570  -35.5620  -16.7120 C   0  0  0  0  0  0  0  0  0  0  0  0
   21.5630  -36.9590  -16.2650 C   0  0  0  0  0  1  0  0  0  0  0  0
   21.4770  -34.4640  -15.9550 N   0  0  0  0  0  0  0  0  0  0  0  0
   21.9470  -34.3340  -14.6350 C   0  0  0  0  0  0  0  0  0  0  0  0
   21.5000  -35.3550  -13.3080 S   0  0  0  0  0  0  0  0  0  0  0  0
   22.4100  -34.3790  -12.1910 C   0  0  0  0  0  0  0  0  0  0  0  0
   22.4410  -34.7520  -10.7440 C   0  0  0  0  0  1  0  0  0  0  0  0
   23.0150  -33.3070  -12.8130 C   0  0  0  0  0  0  0  0  0  0  0  0
   23.8080  -32.2740  -12.0520 C   0  0  0  0  0  1  0  0  0  0  0  0
   22.7760  -33.3070  -14.2340 C   0  0  0  0  0  0  0  0  0  0  0  0
   23.3770  -32.3030  -15.1730 C   0  0  0  0  0  0  0  0  0  0  0  0
   24.8020  -31.9460  -15.0040 C   0  0  0  0  0  0  0  0  0  0  0  0
   25.7690  -32.9600  -14.8300 C   0  0  0  0  0  3  0  0  0  0  0  0
   27.1220  -32.6210  -14.6390 C   0  0  0  0  0  3  0  0  0  0  0  0
   27.5100  -31.2700  -14.6130 C   0  0  0  0  0  0  0  0  0  0  0  0
   29.1630  -30.8440  -14.3820 Cl  0  0  0  0  0  0  0  0  0  0  0  0
   26.5460  -30.2590  -14.7680 C   0  0  0  0  0  3  0  0  0  0  0  0
   25.1960  -30.5920  -14.9810 C   0  0  0  0  0  3  0  0  0  0  0  0
  1  5  1  0
  2  3  1  0
  4 45  1  0
  4  2  1  0
  4  1  1  0
  5  3  1  0
  5 10  1  0
  6  1  2  0
  7 13  1  0
  7  8  1  0
  8  9  2  0
 10 12  1  0
 10  8  1  0
 11  7  1  0
 13 19  1  0
 14 22  1  0
 14 15  1  0
 15 16  1  0
 16 39  1  0
 17 16  1  0
 18 17  1  0
 18 14  1  0
 19 18  1  0
 20 19  2  0
 21 24  1  0
 22 21  1  0
 23 22  2  0
 25 31  1  0
 25 21  1  0
 26 37  1  0
 26 27  1  0
 28 27  2  0
 29 26  2  0
 30 29  1  0
 30 31  2  0
 31 28  1  0
 32 33  1  0
 33 34  1  0
 33 37  2  0
 34 35  1  0
 36 35  1  0
 37 36  1  0
 38 34  1  0
 39 40  1  0
 41 44  1  1
 41 13  1  0
 42 41  1  0
 43 41  1  0
 46 47  1  0
 46 45  1  0
 47 49  1  0
 48 46  2  0
 50 47  1  0
 50 51  1  0
 51 54  1  0
 52 53  2  0
 54 55  1  0
 54 52  1  0
 56 52  1  0
 57 56  1  0
 57 58  1  0
 58 72  2  0
 59 57  1  0
 59 64  1  0
 60 61  1  0
 60 59  2  0
 61 62  2  0
 62 63  1  0
 62 64  1  0
 64 65  1  0
 65 71  2  0
 65 66  1  0
 66 67  1  0
 67 68  1  0
 69 67  2  0
 69 70  1  0
 71 69  1  0
 72 73  1  0
 72 71  1  0
 73 79  2  0
 73 74  1  0
 74 75  2  0
 75 76  1  0
 76 77  1  0
 78 76  2  0
 79 78  1  0
M  ISO  4   8 101  10 101  52 100  54 100
M  END
>  <TORSDO>  (98) 
F 17

>  <SCORE>  (98) 
-5.288

>  <name>  (98) 
97

>  <ligand_id>  (98) 
97

>  <original_smiles>  (98) 
[H]OC1([H])C([H])([H])N(C(=O)C([H])(N([H])C(=O)N([H])C2([H])C(=O)C([H])(C([H])([H])C(=O)N([H])C([H])([H])C([H])([H])N([H])C(=O)C([H])([H])C3([H])N=C(c4c([H])c([H])c(Cl)c([H])c4[H])c4c(sc(C([H])([H])[H])c4C([H])([H])[H])-n4c(C([H])([H])[H])nnc43)C([H])([H])C2([H])[H])C(C([H])([H])[H])(C([H])([H])[H])C([H])([H])[H])C([H])(C(=O)N([H])C([H])([H])c2c([H])c([H])c(C3=C(C([H])([H])[H])N([H])C([H])([H])S3)c([H])c2[H])C1([H])[H]

>  <smiles>  (98) 
[H]OC1([H])C([H])([H])N(C(=O)C([H])(N([H])C(=O)N([H])C2([H])C(=O)C([H])(C([H])([H])C(=O)N([H])C([H])([H])C([H])([H])N([H])C(=O)C([H])([H])C3([H])N=C(c4c([H])c([H])c(Cl)c([H])c4[H])c4c(sc(C([H])([H])[H])c4C([H])([H])[H])-n4c(C([H])([H])[H])nnc43)C([H])([H])C2([H])[H])C(C([H])([H])[H])(C([H])([H])[H])C([H])([H])[H])C([H])(C(=O)N([H])C([H])([H])c2c([H])c([H])c(C3=C(C([H])([H])[H])N([H])C([H])([H])S3)c([H])c2[H])C1([H])[H]

$$$$
98:0:0
     RDKit          3D

 76 83  0  0  1  0  0  0  0  0999 V2000
   25.2320  -27.2500  -15.1060 C   0  0  0  0  0  2  0  0  0  0  0  0
   22.6940  -28.0040  -15.4350 C   0  0  0  0  0  3  0  0  0  0  0  0
   24.0060  -27.6880  -15.9270 C   0  0  0  0  0  3  0  0  0  0  0  0
   21.8960  -27.8670  -16.5340 C   0  0  0  0  0  3  0  0  0  0  0  0
   22.2490  -28.2330  -14.0210 C   0  0  0  0  0  1  0  0  0  0  0  0
   20.4160  -27.6060  -16.6940 C   0  0  0  0  0  1  0  0  0  0  0  0
   24.0370  -27.8150  -17.2490 N   0  0  0  0  0  2  0  0  0  0  0  0
   22.7380  -28.0590  -17.5970 N   0  0  0  0  0  0  0  0  0  0  0  0
   22.3830  -28.5820  -18.9070 C   0  0  0  0  0  2  0  0  0  0  0  0
   22.1740  -30.1370  -18.8670 C   0  0  0  0  0  2  0  0  0  0  0  0
   20.5780  -31.4820  -17.5140 C   0  0  0  0  0  0  0  0  0  0  0  0
   20.0170  -31.1080  -16.4850 O   0  0  0  0  0  0  0  0  0  0  0  0
   20.8180  -30.5950  -18.5060 N   0  0  0  0  0  0  0  0  0  0  0  0
   20.1040  -29.8910  -18.6350 H   0  0  0  0  0  0  0  0  0  0  0  0
   21.0060  -32.9690  -17.6520 C   0  0  0  0  0  2  0  0  0  0  0  0
   21.4570  -33.6140  -16.3090 C   0  0  0  0  0  3  0  0  0  0  0  0
   22.7740  -33.0690  -15.9980 N   0  0  0  0  0  0  0  0  0  0  0  0
   21.5290  -35.1410  -16.3020 C   0  0  0  0  0  0  0  0  0  0  0  0
   21.3290  -35.9610  -17.3450 N   0  0  0  0  0  0  0  0  0  0  0  0
   21.5910  -37.2370  -16.8840 N   0  0  0  0  0  0  0  0  0  0  0  0
   21.9400  -37.0970  -15.6030 C   0  0  0  0  0  0  0  0  0  0  0  0
   22.3760  -38.2490  -14.7460 C   0  0  0  0  0  1  0  0  0  0  0  0
   21.8900  -35.8120  -15.1870 N   0  0  0  0  0  0  0  0  0  0  0  0
   22.1370  -35.2520  -13.9110 C   0  0  0  0  0  0  0  0  0  0  0  0
   21.6540  -35.9430  -12.3960 S   0  0  0  0  0  0  0  0  0  0  0  0
   22.2330  -34.5500  -11.5210 C   0  0  0  0  0  0  0  0  0  0  0  0
   22.0950  -34.5070  -10.0290 C   0  0  0  0  0  1  0  0  0  0  0  0
   22.7610  -33.5960  -12.3660 C   0  0  0  0  0  0  0  0  0  0  0  0
   23.2760  -32.2690  -11.8650 C   0  0  0  0  0  1  0  0  0  0  0  0
   22.7380  -34.0270  -13.7400 C   0  0  0  0  0  0  0  0  0  0  0  0
   23.3270  -33.2200  -14.8560 C   0  0  0  0  0  0  0  0  0  0  0  0
   24.6460  -32.5820  -14.6640 C   0  0  0  0  0  0  0  0  0  0  0  0
   25.6360  -33.2260  -13.8880 C   0  0  0  0  0  3  0  0  0  0  0  0
   26.8840  -32.6120  -13.6800 C   0  0  0  0  0  3  0  0  0  0  0  0
   27.1510  -31.3550  -14.2490 C   0  0  0  0  0  0  0  0  0  0  0  0
   28.6680  -30.5790  -13.9780 Cl  0  0  0  0  0  0  0  0  0  0  0  0
   26.1860  -30.7320  -15.0510 C   0  0  0  0  0  3  0  0  0  0  0  0
   24.9260  -31.3270  -15.2440 C   0  0  0  0  0  3  0  0  0  0  0  0
   25.3080  -24.5410  -16.3130 N   0  0  0  0  0  0  0  0  0  0  0  0
   26.2760  -25.0950  -15.5980 C   0  0  0  0  0  0  0  0  0  0  0  0
   27.0040  -24.4850  -14.8070 O   0  0  0  0  0  0  0  0  0  0  0  0
   26.2580  -26.4240  -15.7890 N   0  0  0  0  0  0  0  0  0  0  0  0
   24.8480  -25.1720  -16.9520 H   0  0  0  0  0  0  0  0  0  0  0  0
   27.1670  -26.8620  -15.7560 H   0  0  0  0  0  0  0  0  0  0  0  0
   24.4590  -23.4260  -15.9040 C   0  0  0  0  0  3  0  0  0  0  0  0
   21.5400  -24.0170  -13.3220 C   0  0  0  0  0  3  0  0  0  0  0  0
   21.1520  -22.9080  -12.3350 C   0  0  0  0  0  2  0  0  0  0  0  0
   22.4400  -22.1480  -12.1010 C   0  0  0  0  0  3  0  0  0  0  0  0
   23.2050  -22.2570  -13.4170 C   0  0  0  0  0  2  0  0  0  0  0  0
   22.6790  -23.4530  -14.0790 N   0  0  0  0  0  0  0  0  0  0  0  0
   23.2270  -24.0300  -15.1710 C   0  0  0  0  0  0  0  0  0  0  0  0
   22.7770  -25.0730  -15.6030 O   0  0  0  0  0  0  0  0  0  0  0  0
   19.5130  -25.3640  -13.5980 N   0  0  0  0  0  0  0  0  0  0  0  0
   20.2980  -24.4240  -14.1380 C   0  0  0  0  0  0  0  0  0  0  0  0
   20.0270  -23.8470  -15.1950 O   0  0  0  0  0  0  0  0  0  0  0  0
   19.7950  -25.7740  -12.7170 H   0  0  0  0  0  0  0  0  0  0  0  0
   18.2070  -25.7610  -14.1140 C   0  0  0  0  0  2  0  0  0  0  0  0
   15.0080  -23.1370  -12.7700 C   0  0  0  0  0  0  0  0  0  0  0  0
   16.1010  -23.4190  -11.9220 C   0  0  0  0  0  3  0  0  0  0  0  0
   17.1310  -24.2660  -12.3560 C   0  0  0  0  0  3  0  0  0  0  0  0
   14.9650  -23.7050  -14.0570 C   0  0  0  0  0  3  0  0  0  0  0  0
   16.0010  -24.5530  -14.4930 C   0  0  0  0  0  3  0  0  0  0  0  0
   17.0910  -24.8380  -13.6460 C   0  0  0  0  0  0  0  0  0  0  0  0
   11.8310  -23.5010  -13.2000 C   0  0  0  0  0  1  0  0  0  0  0  0
   12.5800  -22.4190  -12.4450 C   0  0  0  0  0  0  0  0  0  0  0  0
   11.8370  -21.4570  -11.7930 N   0  0  0  0  0  0  0  0  0  0  0  0
   12.5660  -20.5660  -10.8950 C   0  0  0  0  0  2  0  0  0  0  0  0
   14.2980  -20.8740  -11.3280 S   0  0  0  0  0  0  0  0  0  0  0  0
   13.9020  -22.3090  -12.2620 C   0  0  0  0  0  0  0  0  0  0  0  0
   10.8220  -21.4830  -11.7400 H   0  0  0  0  0  0  0  0  0  0  0  0
   23.2010  -22.7690  -11.0760 O   0  0  0  0  0  0  0  0  0  0  0  0
   23.3530  -23.6780  -11.3220 H   0  0  0  0  0  0  0  0  0  0  0  0
   24.0710  -22.6510  -17.2130 C   0  0  1  0  0  0  0  0  0  0  0  0
   25.3240  -21.8840  -17.6920 C   0  0  0  0  0  1  0  0  0  0  0  0
   23.5840  -23.5530  -18.3790 C   0  0  0  0  0  1  0  0  0  0  0  0
   22.9670  -21.6110  -16.9370 C   0  0  0  0  0  1  0  0  0  0  0  0
  2  5  1  0
  3  2  1  0
  3  1  1  0
  4  6  1  0
  4  2  1  0
  7  3  1  0
  8  7  1  0
  8  4  1  0
  9 10  1  0
  9  8  1  0
 10 13  1  0
 11 12  2  0
 13 11  1  0
 14 13  1  0
 15 11  1  0
 16 15  1  0
 16 18  1  0
 16 17  1  0
 17 31  2  0
 18 23  1  0
 19 20  1  0
 19 18  2  0
 20 21  2  0
 21 23  1  0
 21 22  1  0
 23 24  1  0
 24 30  2  0
 24 25  1  0
 25 26  1  0
 26 27  1  0
 28 29  1  0
 28 26  2  0
 30 28  1  0
 31 32  1  0
 31 30  1  0
 32 33  1  0
 33 34  2  0
 35 36  1  0
 35 34  1  0
 37 35  2  0
 38 37  1  0
 38 32  2  0
 39 45  1  0
 39 40  1  0
 40 41  2  0
 42 44  1  0
 42 40  1  0
 42  1  1  0
 43 39  1  0
 45 51  1  0
 46 54  1  0
 46 47  1  0
 47 48  1  0
 48 71  1  0
 49 48  1  0
 50 49  1  0
 50 46  1  0
 51 50  1  0
 52 51  2  0
 53 56  1  0
 54 53  1  0
 55 54  2  0
 57 63  1  0
 57 53  1  0
 58 69  1  0
 58 59  1  0
 60 59  2  0
 61 58  2  0
 62 61  1  0
 62 63  2  0
 63 60  1  0
 64 65  1  0
 65 69  2  0
 65 66  1  0
 66 70  1  0
 66 67  1  0
 68 67  1  0
 69 68  1  0
 72 71  1  0
 73 76  1  1
 73 45  1  0
 74 73  1  0
 75 73  1  0
M  ISO  4  11 100  13 100  40 101  42 101
M  END
>  <TORSDO>  (99) 
F 16

>  <SCORE>  (99) 
-12.438

>  <name>  (99) 
98

>  <ligand_id>  (99) 
98

>  <original_smiles>  (99) 
[H]OC1([H])C([H])([H])N(C(=O)C([H])(N([H])C(=O)N([H])C([H])([H])c2nn(C([H])([H])C([H])([H])N([H])C(=O)C([H])([H])C3([H])N=C(c4c([H])c([H])c(Cl)c([H])c4[H])c4c(sc(C([H])([H])[H])c4C([H])([H])[H])-n4c(C([H])([H])[H])nnc43)c(C([H])([H])[H])c2C([H])([H])[H])C(C([H])([H])[H])(C([H])([H])[H])C([H])([H])[H])C([H])(C(=O)N([H])C([H])([H])c2c([H])c([H])c(C3=C(C([H])([H])[H])N([H])C([H])([H])S3)c([H])c2[H])C1([H])[H]

>  <smiles>  (99) 
[H]OC1([H])C([H])([H])N(C(=O)C([H])(N([H])C(=O)N([H])C([H])([H])c2nn(C([H])([H])C([H])([H])N([H])C(=O)C([H])([H])C3([H])N=C(c4c([H])c([H])c(Cl)c([H])c4[H])c4c(sc(C([H])([H])[H])c4C([H])([H])[H])-n4c(C([H])([H])[H])nnc43)c(C([H])([H])[H])c2C([H])([H])[H])C(C([H])([H])[H])(C([H])([H])[H])C([H])([H])[H])C([H])(C(=O)N([H])C([H])([H])c2c([H])c([H])c(C3=C(C([H])([H])[H])N([H])C([H])([H])S3)c([H])c2[H])C1([H])[H]

$$$$
99:0:0
     RDKit          3D

 78 84  0  0  1  0  0  0  0  0999 V2000
   22.4720  -28.5100  -16.7900 C   0  0  0  0  0  3  0  0  0  0  0  0
   24.6030  -27.8960  -15.7380 C   0  0  0  0  0  0  0  0  0  0  0  0
   21.6350  -27.4820  -16.0760 C   0  0  0  0  0  1  0  0  0  0  0  0
   24.2160  -27.9500  -14.4540 N   0  0  0  0  0  4  0  0  0  0  0  0
   23.8430  -28.4830  -16.7240 N   0  0  0  0  0  0  0  0  0  0  0  0
   21.7210  -29.3220  -17.5930 N   0  0  0  0  0  0  0  0  0  0  0  0
   25.8160  -27.3030  -15.9830 N   0  0  0  0  0  0  0  0  0  0  0  0
   23.4240  -28.4830  -14.1410 H   0  0  0  0  0  0  0  0  0  0  0  0
   24.7240  -27.4260  -13.7610 H   0  0  0  0  0  0  0  0  0  0  0  0
   24.3340  -28.8510  -17.5250 H   0  0  0  0  0  0  0  0  0  0  0  0
   20.7490  -29.0650  -17.7120 H   0  0  0  0  0  0  0  0  0  0  0  0
   26.2360  -27.3430  -16.9060 H   0  0  0  0  0  0  0  0  0  0  0  0
   25.8500  -24.6830  -15.6980 N   0  0  0  0  0  0  0  0  0  0  0  0
   26.6130  -25.2900  -14.7980 C   0  0  0  0  0  0  0  0  0  0  0  0
   27.1560  -24.6830  -13.8660 O   0  0  0  0  0  0  0  0  0  0  0  0
   26.6010  -26.6420  -14.9480 N   0  0  0  0  0  0  0  0  0  0  0  0
   25.5870  -25.2330  -16.4960 H   0  0  0  0  0  0  0  0  0  0  0  0
   27.0770  -27.3210  -14.3710 H   0  0  0  0  0  0  0  0  0  0  0  0
   24.9320  -23.5770  -15.4570 C   0  0  0  0  0  3  0  0  0  0  0  0
   21.8960  -23.9450  -12.9680 C   0  0  0  0  0  3  0  0  0  0  0  0
   21.4690  -22.7510  -12.1000 C   0  0  0  0  0  2  0  0  0  0  0  0
   22.7430  -21.9530  -11.9070 C   0  0  0  0  0  3  0  0  0  0  0  0
   23.5770  -22.2170  -13.1600 C   0  0  0  0  0  2  0  0  0  0  0  0
   23.0710  -23.4680  -13.7300 N   0  0  0  0  0  0  0  0  0  0  0  0
   23.6850  -24.1550  -14.7200 C   0  0  0  0  0  0  0  0  0  0  0  0
   23.3020  -25.2770  -15.0480 O   0  0  0  0  0  0  0  0  0  0  0  0
   19.9180  -25.3550  -13.2300 N   0  0  0  0  0  0  0  0  0  0  0  0
   20.6960  -24.4280  -13.8010 C   0  0  0  0  0  0  0  0  0  0  0  0
   20.4520  -23.9340  -14.9050 O   0  0  0  0  0  0  0  0  0  0  0  0
   20.1980  -25.7210  -12.3310 H   0  0  0  0  0  0  0  0  0  0  0  0
   18.6310  -25.8070  -13.7480 C   0  0  0  0  0  2  0  0  0  0  0  0
   15.3280  -23.1930  -12.6450 C   0  0  0  0  0  0  0  0  0  0  0  0
   16.3820  -23.4260  -11.7370 C   0  0  0  0  0  3  0  0  0  0  0  0
   17.4500  -24.2670  -12.0920 C   0  0  0  0  0  3  0  0  0  0  0  0
   15.3560  -23.8090  -13.9130 C   0  0  0  0  0  3  0  0  0  0  0  0
   16.4260  -24.6520  -14.2680 C   0  0  0  0  0  3  0  0  0  0  0  0
   17.4800  -24.8860  -13.3610 C   0  0  0  0  0  0  0  0  0  0  0  0
   12.1830  -23.6320  -13.2160 C   0  0  0  0  0  1  0  0  0  0  0  0
   12.8720  -22.5110  -12.4640 C   0  0  0  0  0  0  0  0  0  0  0  0
   12.0800  -21.5470  -11.8740 N   0  0  0  0  0  0  0  0  0  0  0  0
   12.7500  -20.6160  -10.9730 C   0  0  0  0  0  2  0  0  0  0  0  0
   14.5070  -20.9050  -11.3110 S   0  0  0  0  0  0  0  0  0  0  0  0
   14.1820  -22.3720  -12.2210 C   0  0  0  0  0  0  0  0  0  0  0  0
   11.0650  -21.5870  -11.8710 H   0  0  0  0  0  0  0  0  0  0  0  0
   23.4510  -22.4260  -10.7730 O   0  0  0  0  0  0  0  0  0  0  0  0
   23.6460  -23.3490  -10.9010 H   0  0  0  0  0  0  0  0  0  0  0  0
   24.5950  -22.9740  -16.8680 C   0  0  1  0  0  0  0  0  0  0  0  0
   25.8740  -22.3170  -17.4360 C   0  0  0  0  0  1  0  0  0  0  0  0
   24.1110  -24.0260  -17.9000 C   0  0  0  0  0  1  0  0  0  0  0  0
   23.5170  -21.8750  -16.7740 C   0  0  0  0  0  1  0  0  0  0  0  0
   20.9850  -31.5170  -17.3110 C   0  0  0  0  0  0  0  0  0  0  0  0
   20.1360  -31.0930  -16.5240 O   0  0  0  0  0  0  0  0  0  0  0  0
   21.9410  -30.6950  -17.8130 N   0  0  0  0  0  0  0  0  0  0  0  0
   22.6060  -30.8690  -18.5540 H   0  0  0  0  0  0  0  0  0  0  0  0
   21.0760  -33.0380  -17.5490 C   0  0  0  0  0  2  0  0  0  0  0  0
   21.5090  -33.7510  -16.2370 C   0  0  0  0  0  3  0  0  0  0  0  0
   22.8450  -33.2700  -15.8880 N   0  0  0  0  0  0  0  0  0  0  0  0
   21.5100  -35.2710  -16.2650 C   0  0  0  0  0  0  0  0  0  0  0  0
   21.3100  -36.0560  -17.3300 N   0  0  0  0  0  0  0  0  0  0  0  0
   21.5060  -37.3500  -16.8850 N   0  0  0  0  0  0  0  0  0  0  0  0
   21.8170  -37.2460  -15.5890 C   0  0  0  0  0  0  0  0  0  0  0  0
   22.1730  -38.4200  -14.7270 C   0  0  0  0  0  1  0  0  0  0  0  0
   21.8030  -35.9690  -15.1480 N   0  0  0  0  0  0  0  0  0  0  0  0
   22.0290  -35.4400  -13.8600 C   0  0  0  0  0  0  0  0  0  0  0  0
   21.4600  -36.1320  -12.3740 S   0  0  0  0  0  0  0  0  0  0  0  0
   22.0800  -34.7860  -11.4590 C   0  0  0  0  0  0  0  0  0  0  0  0
   21.9050  -34.7640   -9.9760 C   0  0  0  0  0  1  0  0  0  0  0  0
   22.6770  -33.8420  -12.2650 C   0  0  0  0  0  0  0  0  0  0  0  0
   23.2300  -32.5470  -11.7240 C   0  0  0  0  0  1  0  0  0  0  0  0
   22.6850  -34.2470  -13.6460 C   0  0  0  0  0  0  0  0  0  0  0  0
   23.3480  -33.4590  -14.7300 C   0  0  0  0  0  0  0  0  0  0  0  0
   24.6810  -32.8780  -14.4770 C   0  0  0  0  0  0  0  0  0  0  0  0
   25.6790  -33.6460  -13.8400 C   0  0  0  0  0  3  0  0  0  0  0  0
   26.9410  -33.0840  -13.5780 C   0  0  0  0  0  3  0  0  0  0  0  0
   27.2100  -31.7550  -13.9510 C   0  0  0  0  0  0  0  0  0  0  0  0
   28.7520  -31.0560  -13.6300 Cl  0  0  0  0  0  0  0  0  0  0  0  0
   26.2190  -30.9890  -14.5900 C   0  0  0  0  0  3  0  0  0  0  0  0
   24.9560  -31.5490  -14.8570 C   0  0  0  0  0  3  0  0  0  0  0  0
  1  5  1  0
  1  3  1  0
  2  4  2  0
  4  8  1  0
  4  9  1  0
  5  2  1  0
  6  1  1  0
  7  2  1  0
  7 16  1  0
 10  5  1  0
 11  6  1  0
 12  7  1  0
 13 19  1  0
 13 14  1  0
 14 15  2  0
 16 14  1  0
 16 18  1  0
 17 13  1  0
 19 25  1  0
 20 28  1  0
 20 21  1  0
 21 22  1  0
 22 45  1  0
 23 22  1  0
 24 23  1  0
 24 20  1  0
 25 24  1  0
 26 25  2  0
 27 30  1  0
 28 27  1  0
 29 28  2  0
 31 37  1  0
 31 27  1  0
 32 43  1  0
 32 33  1  0
 34 33  2  0
 35 32  2  0
 36 35  1  0
 36 37  2  0
 37 34  1  0
 38 39  1  0
 39 43  2  0
 39 40  1  0
 40 44  1  0
 40 41  1  0
 42 41  1  0
 43 42  1  0
 46 45  1  0
 47 50  1  1
 47 19  1  0
 48 47  1  0
 49 47  1  0
 51 52  2  0
 53  6  1  0
 53 51  1  0
 54 53  1  0
 55 51  1  0
 56 55  1  0
 56 57  1  0
 57 71  2  0
 58 56  1  0
 58 63  1  0
 59 60  1  0
 59 58  2  0
 60 61  2  0
 61 63  1  0
 61 62  1  0
 63 64  1  0
 64 70  2  0
 64 65  1  0
 65 66  1  0
 66 67  1  0
 68 69  1  0
 68 66  2  0
 70 68  1  0
 71 72  1  0
 71 70  1  0
 72 73  1  0
 73 74  2  0
 75 76  1  0
 75 74  1  0
 77 75  2  0
 78 77  1  0
 78 72  2  0
M  ISO  4  14 101  16 101  51 100  53 100
M  END
>  <TORSDO>  (100) 
F 13

>  <SCORE>  (100) 
-14.333

>  <name>  (100) 
99

>  <ligand_id>  (100) 
99

>  <original_smiles>  (100) 
[H]OC1([H])C([H])([H])N(C(=O)C([H])(N([H])C(=O)N([H])[N+]([H])=C(N([H])[H])N([H])C(=[N+]([H])N([H])C(=O)C([H])([H])C2([H])N=C(c3c([H])c([H])c(Cl)c([H])c3[H])c3c(sc(C([H])([H])[H])c3C([H])([H])[H])-n3c(C([H])([H])[H])nnc32)C([H])([H])[H])C(C([H])([H])[H])(C([H])([H])[H])C([H])([H])[H])C([H])(C(=O)N([H])C([H])([H])c2c([H])c([H])c(C3=C(C([H])([H])[H])N([H])C([H])([H])S3)c([H])c2[H])C1([H])[H]

>  <smiles>  (100) 
[H]OC1([H])C([H])([H])N(C(=O)C([H])(N([H])C(=O)N([H])[N+]([H])=C(N([H])[H])N([H])C(=[N+]([H])N([H])C(=O)C([H])([H])C2([H])N=C(c3c([H])c([H])c(Cl)c([H])c3[H])c3c(sc(C([H])([H])[H])c3C([H])([H])[H])-n3c(C([H])([H])[H])nnc32)C([H])([H])[H])C(C([H])([H])[H])(C([H])([H])[H])C([H])([H])[H])C([H])(C(=O)N([H])C([H])([H])c2c([H])c([H])c(C3=C(C([H])([H])[H])N([H])C([H])([H])S3)c([H])c2[H])C1([H])[H]

$$$$
100:0:0
     RDKit          3D

 79 85  0  0  1  0  0  0  0  0999 V2000
   25.8990  -24.5370  -15.2050 N   0  0  0  0  0  0  0  0  0  0  0  0
   26.9100  -24.7430  -14.3660 C   0  0  0  0  0  0  0  0  0  0  0  0
   27.1690  -24.0470  -13.3750 O   0  0  0  0  0  0  0  0  0  0  0  0
   27.9220  -26.3010  -15.9540 C   0  0  0  0  0  3  0  0  0  0  0  0
   28.3100  -25.2570  -16.9700 C   0  0  0  0  0  1  0  0  0  0  0  0
   27.5600  -25.9840  -14.6770 N   0  0  0  0  0  0  0  0  0  0  0  0
   27.9730  -27.5740  -16.4040 N   0  0  0  0  0  0  0  0  0  0  0  0
   25.7220  -25.2660  -15.8780 H   0  0  0  0  0  0  0  0  0  0  0  0
   28.0140  -26.5400  -13.9700 H   0  0  0  0  0  0  0  0  0  0  0  0
   28.2310  -27.8210  -17.3520 H   0  0  0  0  0  0  0  0  0  0  0  0
   27.5160  -28.6230  -15.6410 O   0  0  0  0  0  0  0  0  0  0  0  0
   27.4940  -29.8070  -16.4410 N   0  0  0  0  0  0  0  0  0  0  0  0
   28.1110  -30.4870  -16.0020 H   0  0  0  0  0  0  0  0  0  0  0  0
   25.0440  -29.5520  -16.7630 C   0  0  0  0  0  3  0  0  0  0  0  0
   26.1820  -30.2500  -16.5680 C   0  0  0  0  0  3  0  0  0  0  0  0
   23.7940  -30.1600  -16.7990 N   0  0  0  0  0  0  0  0  0  0  0  0
   23.6690  -31.0900  -16.3990 H   0  0  0  0  0  0  0  0  0  0  0  0
   22.6620  -29.5250  -17.3630 N   0  0  0  0  0  0  0  0  0  0  0  0
   22.3220  -30.0740  -18.1540 H   0  0  0  0  0  0  0  0  0  0  0  0
   20.5820  -30.0350  -16.1790 C   0  0  0  0  0  0  0  0  0  0  0  0
   19.8370  -29.7140  -15.2520 O   0  0  0  0  0  0  0  0  0  0  0  0
   21.5850  -29.2000  -16.5250 N   0  0  0  0  0  0  0  0  0  0  0  0
   21.6160  -28.2960  -16.0730 H   0  0  0  0  0  0  0  0  0  0  0  0
   20.4390  -31.4400  -16.8050 C   0  0  0  0  0  2  0  0  0  0  0  0
   20.9320  -32.5430  -15.8320 C   0  0  0  0  0  3  0  0  0  0  0  0
   22.2920  -32.2110  -15.4090 N   0  0  0  0  0  0  0  0  0  0  0  0
   20.9080  -33.9580  -16.3870 C   0  0  0  0  0  0  0  0  0  0  0  0
   20.6430  -34.3200  -17.6470 N   0  0  0  0  0  0  0  0  0  0  0  0
   20.8360  -35.6890  -17.6940 N   0  0  0  0  0  0  0  0  0  0  0  0
   21.2130  -36.0450  -16.4610 C   0  0  0  0  0  0  0  0  0  0  0  0
   21.5890  -37.4460  -16.0870 C   0  0  0  0  0  1  0  0  0  0  0  0
   21.2430  -35.0030  -15.6010 N   0  0  0  0  0  0  0  0  0  0  0  0
   21.5400  -34.9580  -14.2230 C   0  0  0  0  0  0  0  0  0  0  0  0
   21.0340  -36.1300  -13.0490 S   0  0  0  0  0  0  0  0  0  0  0  0
   21.7200  -35.1910  -11.7520 C   0  0  0  0  0  0  0  0  0  0  0  0
   21.6150  -35.6910  -10.3470 C   0  0  0  0  0  1  0  0  0  0  0  0
   22.2920  -34.0210  -12.2040 C   0  0  0  0  0  0  0  0  0  0  0  0
   22.8930  -33.0000  -11.2720 C   0  0  0  0  0  1  0  0  0  0  0  0
   22.2220  -33.9130  -13.6400 C   0  0  0  0  0  0  0  0  0  0  0  0
   22.8440  -32.7910  -14.4110 C   0  0  0  0  0  0  0  0  0  0  0  0
   24.1940  -32.3340  -14.0320 C   0  0  0  0  0  0  0  0  0  0  0  0
   25.2630  -33.2550  -13.9770 C   0  0  0  0  0  3  0  0  0  0  0  0
   26.5470  -32.8220  -13.5960 C   0  0  0  0  0  3  0  0  0  0  0  0
   26.7620  -31.4740  -13.2570 C   0  0  0  0  0  0  0  0  0  0  0  0
   28.3340  -30.9350  -12.8020 Cl  0  0  0  0  0  0  0  0  0  0  0  0
   25.6900  -30.5640  -13.2830 C   0  0  0  0  0  3  0  0  0  0  0  0
   24.4120  -30.9850  -13.6910 C   0  0  0  0  0  3  0  0  0  0  0  0
   24.8560  -23.5200  -15.1660 C   0  0  0  0  0  3  0  0  0  0  0  0
   21.7490  -23.8600  -12.7770 C   0  0  0  0  0  3  0  0  0  0  0  0
   21.2280  -22.6240  -12.0270 C   0  0  0  0  0  2  0  0  0  0  0  0
   22.4530  -21.7530  -11.8430 C   0  0  0  0  0  3  0  0  0  0  0  0
   23.3450  -22.0700  -13.0440 C   0  0  0  0  0  2  0  0  0  0  0  0
   22.9300  -23.3920  -13.5290 N   0  0  0  0  0  0  0  0  0  0  0  0
   23.6200  -24.1300  -14.4370 C   0  0  0  0  0  0  0  0  0  0  0  0
   23.3200  -25.3060  -14.6780 O   0  0  0  0  0  0  0  0  0  0  0  0
   19.8430  -25.3650  -13.0100 N   0  0  0  0  0  0  0  0  0  0  0  0
   20.6100  -24.4560  -13.6220 C   0  0  0  0  0  0  0  0  0  0  0  0
   20.3980  -24.0570  -14.7690 O   0  0  0  0  0  0  0  0  0  0  0  0
   20.1000  -25.6480  -12.0740 H   0  0  0  0  0  0  0  0  0  0  0  0
   18.6020  -25.9120  -13.5430 C   0  0  0  0  0  2  0  0  0  0  0  0
   15.1330  -23.4260  -12.6830 C   0  0  0  0  0  0  0  0  0  0  0  0
   16.1300  -23.6140  -11.7040 C   0  0  0  0  0  3  0  0  0  0  0  0
   17.2530  -24.4130  -11.9780 C   0  0  0  0  0  3  0  0  0  0  0  0
   15.2750  -24.0430  -13.9440 C   0  0  0  0  0  3  0  0  0  0  0  0
   16.4000  -24.8430  -14.2190 C   0  0  0  0  0  3  0  0  0  0  0  0
   17.3950  -25.0340  -13.2390 C   0  0  0  0  0  0  0  0  0  0  0  0
   12.0750  -23.9060  -13.5960 C   0  0  0  0  0  1  0  0  0  0  0  0
   12.6530  -22.8050  -12.7290 C   0  0  0  0  0  0  0  0  0  0  0  0
   11.7810  -21.8860  -12.1840 N   0  0  0  0  0  0  0  0  0  0  0  0
   12.3280  -20.9840  -11.1770 C   0  0  0  0  0  2  0  0  0  0  0  0
   14.1190  -21.2200  -11.3420 S   0  0  0  0  0  0  0  0  0  0  0  0
   13.9280  -22.6500  -12.3450 C   0  0  0  0  0  0  0  0  0  0  0  0
   10.7720  -21.9440  -12.2950 H   0  0  0  0  0  0  0  0  0  0  0  0
   23.1380  -22.1100  -10.6530 O   0  0  0  0  0  0  0  0  0  0  0  0
   23.3850  -23.0270  -10.7100 H   0  0  0  0  0  0  0  0  0  0  0  0
   24.5680  -23.1220  -16.6620 C   0  0  1  0  0  0  0  0  0  0  0  0
   25.8010  -22.3830  -17.2330 C   0  0  0  0  0  1  0  0  0  0  0  0
   24.2660  -24.3390  -17.5750 C   0  0  0  0  0  1  0  0  0  0  0  0
   23.3860  -22.1380  -16.7800 C   0  0  0  0  0  1  0  0  0  0  0  0
  1 48  1  0
  1  2  1  0
  2  3  2  0
  4  5  1  0
  4  6  1  0
  6  2  1  0
  6  9  1  0
  7  4  1  0
  7 11  1  0
  8  1  1  0
 10  7  1  0
 12 13  1  0
 12 11  1  0
 14 15  2  0
 15 12  1  0
 16 14  1  0
 16 17  1  0
 18 16  1  0
 18 22  1  0
 19 18  1  0
 20 21  2  0
 22 20  1  0
 22 23  1  0
 24 20  1  0
 25 24  1  0
 25 26  1  0
 26 40  2  0
 27 25  1  0
 27 32  1  0
 28 27  2  0
 29 28  1  0
 29 30  2  0
 30 31  1  0
 30 32  1  0
 32 33  1  0
 33 39  2  0
 33 34  1  0
 34 35  1  0
 35 36  1  0
 37 35  2  0
 37 38  1  0
 39 37  1  0
 40 41  1  0
 40 39  1  0
 41 42  2  0
 41 47  1  0
 42 43  1  0
 43 44  2  0
 44 45  1  0
 46 44  1  0
 47 46  2  0
 48 54  1  0
 49 57  1  0
 49 50  1  0
 50 51  1  0
 51 74  1  0
 52 51  1  0
 53 52  1  0
 53 49  1  0
 54 53  1  0
 55 54  2  0
 56 59  1  0
 57 56  1  0
 58 57  2  0
 60 66  1  0
 60 56  1  0
 61 72  1  0
 61 62  1  0
 63 62  2  0
 64 61  2  0
 65 64  1  0
 65 66  2  0
 66 63  1  0
 67 68  1  0
 68 72  2  0
 68 69  1  0
 69 70  1  0
 71 70  1  0
 72 71  1  0
 73 69  1  0
 75 74  1  0
 76 48  1  0
 76 77  1  6
 78 76  1  0
 79 76  1  0
M  ISO  4   2 101   6 101  20 100  22 100
M  END
>  <TORSDO>  (101) 
F 17

>  <SCORE>  (101) 
-10.679

>  <name>  (101) 
100

>  <ligand_id>  (101) 
100

>  <original_smiles>  (101) 
[H]OC1([H])C([H])([H])N(C(=O)C([H])(N([H])C(=O)N([H])C(=[N+]([H])ON([H])C([H])=C([H])N([H])N([H])N([H])C(=O)C([H])([H])C2([H])N=C(c3c([H])c([H])c(Cl)c([H])c3[H])c3c(sc(C([H])([H])[H])c3C([H])([H])[H])-n3c(C([H])([H])[H])nnc32)C([H])([H])[H])C(C([H])([H])[H])(C([H])([H])[H])C([H])([H])[H])C([H])(C(=O)N([H])C([H])([H])c2c([H])c([H])c(C3=C(C([H])([H])[H])N([H])C([H])([H])S3)c([H])c2[H])C1([H])[H]

>  <smiles>  (101) 
[H]OC1([H])C([H])([H])N(C(=O)C([H])(N([H])C(=O)N([H])C(=[N+]([H])ON([H])C([H])=C([H])N([H])N([H])N([H])C(=O)C([H])([H])C2([H])N=C(c3c([H])c([H])c(Cl)c([H])c3[H])c3c(sc(C([H])([H])[H])c3C([H])([H])[H])-n3c(C([H])([H])[H])nnc32)C([H])([H])[H])C(C([H])([H])[H])(C([H])([H])[H])C([H])([H])[H])C([H])(C(=O)N([H])C([H])([H])c2c([H])c([H])c(C3=C(C([H])([H])[H])N([H])C([H])([H])S3)c([H])c2[H])C1([H])[H]

$$$$
101:0:0
     RDKit          3D

 78 85  0  0  1  0  0  0  0  0999 V2000
   25.7320  -24.7260  -15.3960 N   0  0  0  0  0  0  0  0  0  0  0  0
   26.7780  -25.2750  -14.7790 C   0  0  0  0  0  0  0  0  0  0  0  0
   27.3280  -24.7510  -13.8010 O   0  0  0  0  0  0  0  0  0  0  0  0
   26.5920  -27.1890  -16.3850 C   0  0  0  0  0  3  0  0  0  0  0  0
   25.2030  -28.1170  -17.7670 C   0  0  0  0  0  0  0  0  0  0  0  0
   26.9610  -29.0240  -19.4520 C   0  0  0  0  0  1  0  0  0  0  0  0
   25.2910  -27.4000  -16.6430 N   0  0  0  0  0  0  0  0  0  0  0  0
   27.3310  -27.8020  -17.3540 N   0  0  0  0  0  0  0  0  0  0  0  0
   26.4610  -28.3600  -18.2390 N   0  0  0  0  0  0  0  0  0  0  0  0
   27.1790  -26.4390  -15.3190 N   0  0  0  0  0  0  0  0  0  0  0  0
   24.0320  -28.5310  -18.4190 N   0  0  0  0  0  0  0  0  0  0  0  0
   25.3070  -25.2550  -16.1420 H   0  0  0  0  0  0  0  0  0  0  0  0
   28.3440  -27.8160  -17.4600 H   0  0  0  0  0  0  0  0  0  0  0  0
   28.0440  -26.8050  -14.9500 H   0  0  0  0  0  0  0  0  0  0  0  0
   24.1920  -29.0400  -19.2710 H   0  0  0  0  0  0  0  0  0  0  0  0
   24.9280  -23.5830  -14.9770 C   0  0  0  0  0  3  0  0  0  0  0  0
   21.7760  -23.8900  -12.6470 C   0  0  0  0  0  3  0  0  0  0  0  0
   21.2890  -22.6660  -11.8550 C   0  0  0  0  0  2  0  0  0  0  0  0
   22.5420  -21.8460  -11.6230 C   0  0  0  0  0  3  0  0  0  0  0  0
   23.4380  -22.1480  -12.8240 C   0  0  0  0  0  2  0  0  0  0  0  0
   22.9830  -23.4330  -13.3660 N   0  0  0  0  0  0  0  0  0  0  0  0
   23.6530  -24.1630  -14.2950 C   0  0  0  0  0  0  0  0  0  0  0  0
   23.3070  -25.3140  -14.5850 O   0  0  0  0  0  0  0  0  0  0  0  0
   19.8410  -25.3380  -12.9740 N   0  0  0  0  0  0  0  0  0  0  0  0
   20.6300  -24.4120  -13.5290 C   0  0  0  0  0  0  0  0  0  0  0  0
   20.4370  -23.9470  -14.6550 O   0  0  0  0  0  0  0  0  0  0  0  0
   20.0860  -25.6780  -12.0550 H   0  0  0  0  0  0  0  0  0  0  0  0
   18.5910  -25.8260  -13.5420 C   0  0  0  0  0  2  0  0  0  0  0  0
   15.1910  -23.2640  -12.6430 C   0  0  0  0  0  0  0  0  0  0  0  0
   16.1930  -23.4730  -11.6750 C   0  0  0  0  0  3  0  0  0  0  0  0
   17.2950  -24.2980  -11.9620 C   0  0  0  0  0  3  0  0  0  0  0  0
   15.3030  -23.8830  -13.9060 C   0  0  0  0  0  3  0  0  0  0  0  0
   16.4070  -24.7070  -14.1940 C   0  0  0  0  0  3  0  0  0  0  0  0
   17.4080  -24.9210  -13.2240 C   0  0  0  0  0  0  0  0  0  0  0  0
   12.1000  -23.7240  -13.4470 C   0  0  0  0  0  1  0  0  0  0  0  0
   12.7190  -22.6080  -12.6310 C   0  0  0  0  0  0  0  0  0  0  0  0
   11.8770  -21.6600  -12.0860 N   0  0  0  0  0  0  0  0  0  0  0  0
   12.4670  -20.7370  -11.1250 C   0  0  0  0  0  2  0  0  0  0  0  0
   14.2480  -21.0040  -11.3360 S   0  0  0  0  0  0  0  0  0  0  0  0
   14.0070  -22.4610  -12.2900 C   0  0  0  0  0  0  0  0  0  0  0  0
   10.8650  -21.7090  -12.1620 H   0  0  0  0  0  0  0  0  0  0  0  0
   23.1970  -22.2730  -10.4380 O   0  0  0  0  0  0  0  0  0  0  0  0
   23.4120  -23.1950  -10.5270 H   0  0  0  0  0  0  0  0  0  0  0  0
   24.6230  -22.7330  -16.2670 C   0  0  1  0  0  0  0  0  0  0  0  0
   25.9380  -22.0860  -16.7640 C   0  0  0  0  0  1  0  0  0  0  0  0
   24.0350  -23.5710  -17.4310 C   0  0  0  0  0  1  0  0  0  0  0  0
   23.6400  -21.5780  -15.9730 C   0  0  0  0  0  1  0  0  0  0  0  0
   22.8470  -28.9110  -17.6500 C   0  0  0  0  0  2  0  0  0  0  0  0
   22.4510  -31.0080  -19.1140 C   0  0  0  0  0  1  0  0  0  0  0  0
   21.8230  -29.7530  -18.4790 C   0  0  0  0  0  3  0  0  0  0  0  0
   20.1450  -30.9680  -16.8890 C   0  0  0  0  0  0  0  0  0  0  0  0
   19.5930  -30.6140  -15.8490 O   0  0  0  0  0  0  0  0  0  0  0  0
   20.5820  -29.9850  -17.7090 N   0  0  0  0  0  0  0  0  0  0  0  0
   20.1330  -29.1100  -17.4740 H   0  0  0  0  0  0  0  0  0  0  0  0
   20.2600  -32.4890  -17.1690 C   0  0  0  0  0  2  0  0  0  0  0  0
   20.9350  -33.2620  -16.0000 C   0  0  0  0  0  3  0  0  0  0  0  0
   22.2690  -32.7030  -15.8050 N   0  0  0  0  0  0  0  0  0  0  0  0
   21.0360  -34.7730  -16.1780 C   0  0  0  0  0  0  0  0  0  0  0  0
   20.7160  -35.4780  -17.2700 N   0  0  0  0  0  0  0  0  0  0  0  0
   21.0630  -36.7870  -16.9900 N   0  0  0  0  0  0  0  0  0  0  0  0
   21.5710  -36.7730  -15.7540 C   0  0  0  0  0  0  0  0  0  0  0  0
   22.1320  -37.9880  -15.0790 C   0  0  0  0  0  1  0  0  0  0  0  0
   21.5470  -35.5450  -15.1940 N   0  0  0  0  0  0  0  0  0  0  0  0
   21.9400  -35.1170  -13.9090 C   0  0  0  0  0  0  0  0  0  0  0  0
   21.6640  -35.9830  -12.4310 S   0  0  0  0  0  0  0  0  0  0  0  0
   22.3320  -34.6790  -11.4900 C   0  0  0  0  0  0  0  0  0  0  0  0
   22.3930  -34.7990  -10.0030 C   0  0  0  0  0  1  0  0  0  0  0  0
   22.7290  -33.6210  -12.2790 C   0  0  0  0  0  0  0  0  0  0  0  0
   23.2750  -32.3390  -11.7020 C   0  0  0  0  0  1  0  0  0  0  0  0
   22.5390  -33.8970  -13.6800 C   0  0  0  0  0  0  0  0  0  0  0  0
   22.9640  -32.9610  -14.7650 C   0  0  0  0  0  0  0  0  0  0  0  0
   24.2800  -32.3010  -14.6610 C   0  0  0  0  0  0  0  0  0  0  0  0
   25.4130  -33.0370  -14.2590 C   0  0  0  0  0  3  0  0  0  0  0  0
   26.6610  -32.3960  -14.1420 C   0  0  0  0  0  3  0  0  0  0  0  0
   26.7780  -31.0230  -14.4330 C   0  0  0  0  0  0  0  0  0  0  0  0
   28.3040  -30.2370  -14.2880 Cl  0  0  0  0  0  0  0  0  0  0  0  0
   25.6470  -30.2880  -14.8310 C   0  0  0  0  0  3  0  0  0  0  0  0
   24.3990  -30.9250  -14.9370 C   0  0  0  0  0  3  0  0  0  0  0  0
  1 16  1  0
  1  2  1  0
  2  3  2  0
  4 10  1  0
  5  7  2  0
  6  9  1  0
  7  4  1  0
  8  4  1  0
  9  5  1  0
  9  8  1  0
 10 14  1  0
 10  2  1  0
 11  5  1  0
 11 48  1  0
 12  1  1  0
 13  8  1  0
 15 11  1  0
 16 22  1  0
 17 25  1  0
 17 18  1  0
 18 19  1  0
 19 42  1  0
 20 19  1  0
 21 20  1  0
 21 17  1  0
 22 21  1  0
 23 22  2  0
 24 27  1  0
 25 24  1  0
 26 25  2  0
 28 34  1  0
 28 24  1  0
 29 40  1  0
 29 30  1  0
 31 30  2  0
 32 29  2  0
 33 32  1  0
 33 34  2  0
 34 31  1  0
 35 36  1  0
 36 40  2  0
 36 37  1  0
 37 38  1  0
 39 38  1  0
 40 39  1  0
 41 37  1  0
 43 42  1  0
 44 47  1  1
 44 16  1  0
 45 44  1  0
 46 44  1  0
 50 49  1  0
 50 53  1  0
 50 48  1  0
 51 52  2  0
 53 54  1  0
 53 51  1  0
 55 51  1  0
 56 55  1  0
 56 57  1  0
 57 71  2  0
 58 56  1  0
 58 63  1  0
 59 60  1  0
 59 58  2  0
 60 61  2  0
 61 63  1  0
 61 62  1  0
 63 64  1  0
 64 70  2  0
 64 65  1  0
 65 66  1  0
 66 67  1  0
 68 69  1  0
 68 66  2  0
 70 68  1  0
 71 72  1  0
 71 70  1  0
 72 73  1  0
 73 74  2  0
 75 76  1  0
 75 74  1  0
 77 75  2  0
 78 77  1  0
 78 72  2  0
M  ISO  4   2 101  10 101  51 100  53 100
M  END
>  <TORSDO>  (102) 
F 14

>  <SCORE>  (102) 
-11.525

>  <name>  (102) 
101

>  <ligand_id>  (102) 
101

>  <original_smiles>  (102) 
[H]OC1([H])C([H])([H])N(C(=O)C([H])(N([H])C(=O)N([H])c2nc(N([H])C([H])([H])C([H])(N([H])C(=O)C([H])([H])C3([H])N=C(c4c([H])c([H])c(Cl)c([H])c4[H])c4c(sc(C([H])([H])[H])c4C([H])([H])[H])-n4c(C([H])([H])[H])nnc43)C([H])([H])[H])[n+](C([H])([H])[H])n2[H])C(C([H])([H])[H])(C([H])([H])[H])C([H])([H])[H])C([H])(C(=O)N([H])C([H])([H])c2c([H])c([H])c(C3=C(C([H])([H])[H])N([H])C([H])([H])S3)c([H])c2[H])C1([H])[H]

>  <smiles>  (102) 
[H]OC1([H])C([H])([H])N(C(=O)C([H])(N([H])C(=O)N([H])c2nc(N([H])C([H])([H])C([H])(N([H])C(=O)C([H])([H])C3([H])N=C(c4c([H])c([H])c(Cl)c([H])c4[H])c4c(sc(C([H])([H])[H])c4C([H])([H])[H])-n4c(C([H])([H])[H])nnc43)C([H])([H])[H])[n+](C([H])([H])[H])n2[H])C(C([H])([H])[H])(C([H])([H])[H])C([H])([H])[H])C([H])(C(=O)N([H])C([H])([H])c2c([H])c([H])c(C3=C(C([H])([H])[H])N([H])C([H])([H])S3)c([H])c2[H])C1([H])[H]

$$$$
102:0:0
     RDKit          3D

 74 81  0  0  1  0  0  0  0  0999 V2000
   24.0360  -28.6460  -15.7760 C   0  0  0  0  0  2  0  0  0  0  0  0
   24.3350  -27.2130  -15.8200 C   0  0  0  0  0  3  0  0  0  0  0  0
   24.6970  -29.1460  -17.0520 C   0  0  0  0  0  3  0  0  0  0  0  0
   25.7220  -27.0680  -16.4490 C   0  0  0  0  0  3  0  0  0  0  0  0
   25.9220  -28.3420  -17.0540 O   0  0  0  0  0  0  0  0  0  0  0  0
   23.3100  -26.6350  -16.5950 O   0  0  0  0  0  0  0  0  0  0  0  0
   22.8780  -26.0200  -16.0010 H   0  0  0  0  0  0  0  0  0  0  0  0
   26.7030  -26.5910  -15.4660 O   0  0  0  0  0  0  0  0  0  0  0  0
   25.6440  -24.5520  -15.5870 N   0  0  0  0  0  0  0  0  0  0  0  0
   26.5820  -25.2560  -14.8860 C   0  0  0  0  0  0  0  0  0  0  0  0
   27.1750  -24.7930  -13.8930 O   0  0  0  0  0  0  0  0  0  0  0  0
   25.2960  -25.0220  -16.4070 H   0  0  0  0  0  0  0  0  0  0  0  0
   24.8140  -23.4220  -15.2240 C   0  0  0  0  0  3  0  0  0  0  0  0
   21.7840  -23.7800  -12.7210 C   0  0  0  0  0  3  0  0  0  0  0  0
   21.3190  -22.5790  -11.8950 C   0  0  0  0  0  2  0  0  0  0  0  0
   22.5740  -21.7440  -11.7130 C   0  0  0  0  0  3  0  0  0  0  0  0
   23.4180  -22.0000  -12.9570 C   0  0  0  0  0  2  0  0  0  0  0  0
   22.9510  -23.2750  -13.4820 N   0  0  0  0  0  0  0  0  0  0  0  0
   23.5580  -23.9590  -14.4630 C   0  0  0  0  0  0  0  0  0  0  0  0
   23.0980  -25.0480  -14.7500 O   0  0  0  0  0  0  0  0  0  0  0  0
   19.8560  -25.2780  -12.9420 N   0  0  0  0  0  0  0  0  0  0  0  0
   20.6040  -24.3450  -13.5430 C   0  0  0  0  0  0  0  0  0  0  0  0
   20.3610  -23.9170  -14.6740 O   0  0  0  0  0  0  0  0  0  0  0  0
   20.1410  -25.5940  -12.0250 H   0  0  0  0  0  0  0  0  0  0  0  0
   18.5940  -25.7950  -13.4540 C   0  0  0  0  0  2  0  0  0  0  0  0
   15.2230  -23.1900  -12.5540 C   0  0  0  0  0  0  0  0  0  0  0  0
   16.2650  -23.3500  -11.6180 C   0  0  0  0  0  3  0  0  0  0  0  0
   17.3540  -24.1900  -11.9070 C   0  0  0  0  0  3  0  0  0  0  0  0
   15.2860  -23.8760  -13.7860 C   0  0  0  0  0  3  0  0  0  0  0  0
   16.3780  -24.7150  -14.0760 C   0  0  0  0  0  3  0  0  0  0  0  0
   17.4190  -24.8780  -13.1380 C   0  0  0  0  0  0  0  0  0  0  0  0
   12.0980  -23.7130  -13.1590 C   0  0  0  0  0  1  0  0  0  0  0  0
   12.7530  -22.5410  -12.4550 C   0  0  0  0  0  0  0  0  0  0  0  0
   11.9330  -21.5620  -11.9310 N   0  0  0  0  0  0  0  0  0  0  0  0
   12.5700  -20.5750  -11.0650 C   0  0  0  0  0  2  0  0  0  0  0  0
   14.3370  -20.8490  -11.3550 S   0  0  0  0  0  0  0  0  0  0  0  0
   14.0560  -22.3670  -12.1940 C   0  0  0  0  0  0  0  0  0  0  0  0
   10.9200  -21.6160  -11.9520 H   0  0  0  0  0  0  0  0  0  0  0  0
   23.2980  -22.1850  -10.5770 O   0  0  0  0  0  0  0  0  0  0  0  0
   23.5280  -23.1010  -10.7000 H   0  0  0  0  0  0  0  0  0  0  0  0
   24.4700  -22.7460  -16.6030 C   0  0  1  0  0  0  0  0  0  0  0  0
   25.7560  -22.0980  -17.1650 C   0  0  0  0  0  1  0  0  0  0  0  0
   23.9420  -23.7070  -17.6960 C   0  0  0  0  0  1  0  0  0  0  0  0
   23.4140  -21.6380  -16.4430 C   0  0  0  0  0  1  0  0  0  0  0  0
   23.7300  -29.0840  -18.2870 C   0  0  0  0  0  2  0  0  0  0  0  0
   22.1990  -29.4440  -18.0780 C   0  0  0  0  0  2  0  0  0  0  0  0
   20.9650  -31.4860  -17.0950 C   0  0  0  0  0  0  0  0  0  0  0  0
   20.3070  -30.9240  -16.2110 O   0  0  0  0  0  0  0  0  0  0  0  0
   21.8650  -30.8740  -17.9090 N   0  0  0  0  0  0  0  0  0  0  0  0
   22.3680  -31.4990  -18.5260 H   0  0  0  0  0  0  0  0  0  0  0  0
   20.9170  -33.0170  -17.2230 C   0  0  0  0  0  2  0  0  0  0  0  0
   21.3960  -33.7270  -15.9280 C   0  0  0  0  0  3  0  0  0  0  0  0
   22.7480  -33.2750  -15.5950 N   0  0  0  0  0  0  0  0  0  0  0  0
   21.3860  -35.2440  -16.0000 C   0  0  0  0  0  0  0  0  0  0  0  0
   21.1770  -35.9970  -17.0880 N   0  0  0  0  0  0  0  0  0  0  0  0
   21.3800  -37.3020  -16.6840 N   0  0  0  0  0  0  0  0  0  0  0  0
   21.7070  -37.2370  -15.3900 C   0  0  0  0  0  0  0  0  0  0  0  0
   22.0780  -38.4360  -14.5700 C   0  0  0  0  0  1  0  0  0  0  0  0
   21.6960  -35.9750  -14.9090 N   0  0  0  0  0  0  0  0  0  0  0  0
   21.9420  -35.4850  -13.6120 C   0  0  0  0  0  0  0  0  0  0  0  0
   21.3940  -36.2080  -12.1350 S   0  0  0  0  0  0  0  0  0  0  0  0
   22.0340  -34.8850  -11.1980 C   0  0  0  0  0  0  0  0  0  0  0  0
   21.8800  -34.8970   -9.7110 C   0  0  0  0  0  1  0  0  0  0  0  0
   22.6220  -33.9250  -11.9900 C   0  0  0  0  0  0  0  0  0  0  0  0
   23.1880  -32.6420  -11.4320 C   0  0  0  0  0  1  0  0  0  0  0  0
   22.6090  -34.3040  -13.3780 C   0  0  0  0  0  0  0  0  0  0  0  0
   23.2720  -33.5110  -14.4500 C   0  0  0  0  0  0  0  0  0  0  0  0
   24.6230  -32.9790  -14.1810 C   0  0  0  0  0  0  0  0  0  0  0  0
   25.6430  -33.7640  -13.6120 C   0  0  0  0  0  3  0  0  0  0  0  0
   26.9080  -33.1960  -13.3540 C   0  0  0  0  0  3  0  0  0  0  0  0
   27.1600  -31.8480  -13.6660 C   0  0  0  0  0  0  0  0  0  0  0  0
   28.7000  -31.1370  -13.3590 Cl  0  0  0  0  0  0  0  0  0  0  0  0
   26.1460  -31.0710  -14.2310 C   0  0  0  0  0  3  0  0  0  0  0  0
   24.8780  -31.6430  -14.4720 C   0  0  0  0  0  3  0  0  0  0  0  0
  2  6  1  0
  2  1  1  0
  3 45  1  0
  3  1  1  0
  4  2  1  0
  4  8  1  0
  5  3  1  0
  5  4  1  0
  6  7  1  0
  8 10  1  0
  9 13  1  0
  9 10  1  0
 10 11  2  0
 12  9  1  0
 13 19  1  0
 14 22  1  0
 14 15  1  0
 15 16  1  0
 16 39  1  0
 17 16  1  0
 18 17  1  0
 18 14  1  0
 19 18  1  0
 20 19  2  0
 21 24  1  0
 22 21  1  0
 23 22  2  0
 25 31  1  0
 25 21  1  0
 26 37  1  0
 26 27  1  0
 28 27  2  0
 29 26  2  0
 30 29  1  0
 30 31  2  0
 31 28  1  0
 32 33  1  0
 33 37  2  0
 33 34  1  0
 34 35  1  0
 36 35  1  0
 37 36  1  0
 38 34  1  0
 40 39  1  0
 41 44  1  1
 41 13  1  0
 42 41  1  0
 43 41  1  0
 45 46  1  0
 46 49  1  0
 47 48  2  0
 49 47  1  0
 50 49  1  0
 51 47  1  0
 52 51  1  0
 52 53  1  0
 53 67  2  0
 54 52  1  0
 54 59  1  0
 55 56  1  0
 55 54  2  0
 56 57  2  0
 57 59  1  0
 57 58  1  0
 59 60  1  0
 60 66  2  0
 60 61  1  0
 61 62  1  0
 62 63  1  0
 64 65  1  0
 64 62  2  0
 66 64  1  0
 67 68  1  0
 67 66  1  0
 68 69  1  0
 69 70  2  0
 71 72  1  0
 71 70  1  0
 73 71  2  0
 74 73  1  0
 74 68  2  0
M  ISO  4   8 101  10 101  47 100  49 100
M  END
>  <TORSDO>  (103) 
F 17

>  <SCORE>  (103) 
-12.692

>  <name>  (103) 
102

>  <ligand_id>  (103) 
102

>  <original_smiles>  (103) 
[H]OC1([H])C([H])(OC(=O)N([H])C([H])(C(=O)N2C([H])([H])C([H])(O[H])C([H])([H])C2([H])C(=O)N([H])C([H])([H])c2c([H])c([H])c(C3=C(C([H])([H])[H])N([H])C([H])([H])S3)c([H])c2[H])C(C([H])([H])[H])(C([H])([H])[H])C([H])([H])[H])OC([H])(C([H])([H])C([H])([H])N([H])C(=O)C([H])([H])C2([H])N=C(c3c([H])c([H])c(Cl)c([H])c3[H])c3c(sc(C([H])([H])[H])c3C([H])([H])[H])-n3c(C([H])([H])[H])nnc32)C1([H])[H]

>  <smiles>  (103) 
[H]OC1([H])C([H])(OC(=O)N([H])C([H])(C(=O)N2C([H])([H])C([H])(O[H])C([H])([H])C2([H])C(=O)N([H])C([H])([H])c2c([H])c([H])c(C3=C(C([H])([H])[H])N([H])C([H])([H])S3)c([H])c2[H])C(C([H])([H])[H])(C([H])([H])[H])C([H])([H])[H])OC([H])(C([H])([H])C([H])([H])N([H])C(=O)C([H])([H])C2([H])N=C(c3c([H])c([H])c(Cl)c([H])c3[H])c3c(sc(C([H])([H])[H])c3C([H])([H])[H])-n3c(C([H])([H])[H])nnc32)C1([H])[H]

$$$$
103:0:0
     RDKit          3D

 76 84  0  0  1  0  0  0  0  0999 V2000
   27.1190  -28.5400  -16.6530 C   0  0  0  0  0  2  0  0  0  0  0  0
   26.4090  -29.8170  -17.2400 C   0  0  0  0  0  2  0  0  0  0  0  0
   21.9350  -28.7620  -19.2620 C   0  0  0  0  0  2  0  0  0  0  0  0
   24.0670  -29.3110  -17.4920 C   0  0  0  0  0  3  0  0  0  0  0  0
   23.7890  -27.9090  -18.0660 C   0  0  0  0  0  3  0  0  0  0  0  0
   26.3220  -27.3480  -16.0300 C   0  0  0  0  0  3  0  0  0  0  0  0
   22.8880  -30.3330  -17.7810 C   0  0  0  0  0  3  0  0  0  0  0  0
   25.2870  -29.7130  -18.1150 O   0  0  0  0  0  0  0  0  0  0  0  0
   22.4010  -27.8210  -18.3370 O   0  0  0  0  0  0  0  0  0  0  0  0
   22.4180  -30.0710  -19.0710 O   0  0  0  0  0  0  0  0  0  0  0  0
   24.2120  -26.9180  -17.1200 O   0  0  0  0  0  0  0  0  0  0  0  0
   25.7200  -26.7220  -17.1670 O   0  0  0  0  0  0  0  0  0  0  0  0
   21.8830  -30.1670  -16.7990 O   0  0  0  0  0  0  0  0  0  0  0  0
   20.7990  -31.0420  -16.5980 C   0  0  0  0  0  0  0  0  0  0  0  0
   19.9290  -30.6740  -15.8150 O   0  0  0  0  0  0  0  0  0  0  0  0
   20.8480  -32.5470  -16.9880 C   0  0  0  0  0  2  0  0  0  0  0  0
   21.2670  -33.3950  -15.7440 C   0  0  0  0  0  3  0  0  0  0  0  0
   22.6230  -32.9710  -15.4350 N   0  0  0  0  0  0  0  0  0  0  0  0
   21.2250  -34.9200  -15.8540 C   0  0  0  0  0  0  0  0  0  0  0  0
   20.9240  -35.6410  -16.9400 N   0  0  0  0  0  0  0  0  0  0  0  0
   21.1280  -36.9630  -16.5840 N   0  0  0  0  0  0  0  0  0  0  0  0
   21.5350  -36.9430  -15.3130 C   0  0  0  0  0  0  0  0  0  0  0  0
   21.9350  -38.1760  -14.5560 C   0  0  0  0  0  1  0  0  0  0  0  0
   21.5760  -35.6930  -14.7970 N   0  0  0  0  0  0  0  0  0  0  0  0
   21.8990  -35.2560  -13.4960 C   0  0  0  0  0  0  0  0  0  0  0  0
   21.4410  -36.0430  -12.0170 S   0  0  0  0  0  0  0  0  0  0  0  0
   22.1410  -34.7650  -11.0610 C   0  0  0  0  0  0  0  0  0  0  0  0
   22.0750  -34.8450   -9.5690 C   0  0  0  0  0  1  0  0  0  0  0  0
   22.6860  -33.7710  -11.8470 C   0  0  0  0  0  0  0  0  0  0  0  0
   23.2960  -32.5160  -11.2670 C   0  0  0  0  0  1  0  0  0  0  0  0
   22.5830  -34.0850  -13.2490 C   0  0  0  0  0  0  0  0  0  0  0  0
   23.1840  -33.2400  -14.3220 C   0  0  0  0  0  0  0  0  0  0  0  0
   24.5330  -32.6870  -14.1200 C   0  0  0  0  0  0  0  0  0  0  0  0
   25.5780  -33.5240  -13.6810 C   0  0  0  0  0  3  0  0  0  0  0  0
   26.8650  -32.9920  -13.4760 C   0  0  0  0  0  3  0  0  0  0  0  0
   27.0970  -31.6200  -13.6790 C   0  0  0  0  0  0  0  0  0  0  0  0
   28.6720  -30.9570  -13.4570 Cl  0  0  0  0  0  0  0  0  0  0  0  0
   26.0360  -30.7790  -14.0510 C   0  0  0  0  0  3  0  0  0  0  0  0
   24.7630  -31.3140  -14.3170 C   0  0  0  0  0  3  0  0  0  0  0  0
   27.2220  -26.4900  -15.2220 O   0  0  0  0  0  0  0  0  0  0  0  0
   25.8860  -24.6610  -15.3110 N   0  0  0  0  0  0  0  0  0  0  0  0
   26.9100  -25.2450  -14.6220 C   0  0  0  0  0  0  0  0  0  0  0  0
   27.4780  -24.7240  -13.6460 O   0  0  0  0  0  0  0  0  0  0  0  0
   25.5320  -25.2020  -16.0900 H   0  0  0  0  0  0  0  0  0  0  0  0
   25.0790  -23.5030  -14.9650 C   0  0  0  0  0  3  0  0  0  0  0  0
   21.8830  -23.7210  -12.6760 C   0  0  0  0  0  3  0  0  0  0  0  0
   21.3540  -22.4610  -11.9720 C   0  0  0  0  0  2  0  0  0  0  0  0
   22.5880  -21.6120  -11.7520 C   0  0  0  0  0  3  0  0  0  0  0  0
   23.5200  -21.9640  -12.9120 C   0  0  0  0  0  2  0  0  0  0  0  0
   23.1010  -23.2860  -13.3930 N   0  0  0  0  0  0  0  0  0  0  0  0
   23.8010  -24.0570  -14.2640 C   0  0  0  0  0  0  0  0  0  0  0  0
   23.4810  -25.2320  -14.4830 O   0  0  0  0  0  0  0  0  0  0  0  0
   20.0130  -25.2560  -12.9730 N   0  0  0  0  0  0  0  0  0  0  0  0
   20.7710  -24.3210  -13.5530 C   0  0  0  0  0  0  0  0  0  0  0  0
   20.5750  -23.9040  -14.6970 O   0  0  0  0  0  0  0  0  0  0  0  0
   20.2560  -25.5520  -12.0390 H   0  0  0  0  0  0  0  0  0  0  0  0
   18.7930  -25.8150  -13.5400 C   0  0  0  0  0  2  0  0  0  0  0  0
   15.2760  -23.3690  -12.7650 C   0  0  0  0  0  0  0  0  0  0  0  0
   16.2980  -23.4670  -11.7970 C   0  0  0  0  0  3  0  0  0  0  0  0
   17.4350  -24.2540  -12.0460 C   0  0  0  0  0  3  0  0  0  0  0  0
   15.4090  -24.0610  -13.9860 C   0  0  0  0  0  3  0  0  0  0  0  0
   16.5490  -24.8480  -14.2350 C   0  0  0  0  0  3  0  0  0  0  0  0
   17.5680  -24.9500  -13.2660 C   0  0  0  0  0  0  0  0  0  0  0  0
   12.1970  -24.0750  -13.4250 C   0  0  0  0  0  1  0  0  0  0  0  0
   12.7720  -22.8540  -12.7340 C   0  0  0  0  0  0  0  0  0  0  0  0
   11.8910  -21.9100  -12.2510 N   0  0  0  0  0  0  0  0  0  0  0  0
   12.4520  -20.8670  -11.3970 C   0  0  0  0  0  2  0  0  0  0  0  0
   14.2380  -21.0550  -11.6390 S   0  0  0  0  0  0  0  0  0  0  0  0
   14.0590  -22.6040  -12.4490 C   0  0  0  0  0  0  0  0  0  0  0  0
   10.8810  -22.0160  -12.2960 H   0  0  0  0  0  0  0  0  0  0  0  0
   23.2150  -21.9580  -10.5290 O   0  0  0  0  0  0  0  0  0  0  0  0
   23.4600  -22.8780  -10.5650 H   0  0  0  0  0  0  0  0  0  0  0  0
   24.7970  -22.7580  -16.3220 C   0  0  1  0  0  0  0  0  0  0  0  0
   26.1190  -22.1370  -16.8310 C   0  0  0  0  0  1  0  0  0  0  0  0
   24.2570  -23.6830  -17.4390 C   0  0  0  0  0  1  0  0  0  0  0  0
   23.7900  -21.6050  -16.1530 C   0  0  0  0  0  1  0  0  0  0  0  0
  1  6  1  0
  2  1  1  0
  3 10  1  0
  3  9  1  0
  4  8  1  0
  5  9  1  0
  5  4  1  0
  5 11  1  0
  6 40  1  0
  7  4  1  0
  7 13  1  0
  8  2  1  0
 10  7  1  0
 12 11  1  0
 12  6  1  0
 13 14  1  0
 14 15  2  0
 16 14  1  0
 17 16  1  0
 17 18  1  0
 18 32  2  0
 19 17  1  0
 19 24  1  0
 20 21  1  0
 20 19  2  0
 21 22  2  0
 22 24  1  0
 22 23  1  0
 24 25  1  0
 25 31  2  0
 25 26  1  0
 26 27  1  0
 27 28  1  0
 29 30  1  0
 29 27  2  0
 31 29  1  0
 32 33  1  0
 32 31  1  0
 33 34  1  0
 34 35  2  0
 36 35  1  0
 36 37  1  0
 38 36  2  0
 39 33  2  0
 39 38  1  0
 40 42  1  0
 41 45  1  0
 41 42  1  0
 42 43  2  0
 44 41  1  0
 45 51  1  0
 46 54  1  0
 46 47  1  0
 47 48  1  0
 48 71  1  0
 49 48  1  0
 50 49  1  0
 50 46  1  0
 51 50  1  0
 52 51  2  0
 53 56  1  0
 54 53  1  0
 55 54  2  0
 57 63  1  0
 57 53  1  0
 58 69  1  0
 58 59  1  0
 60 59  2  0
 61 58  2  0
 62 61  1  0
 62 63  2  0
 63 60  1  0
 64 65  1  0
 65 69  2  0
 65 66  1  0
 66 67  1  0
 68 67  1  0
 69 68  1  0
 70 66  1  0
 72 71  1  0
 73 76  1  1
 73 45  1  0
 74 73  1  0
 75 73  1  0
M  ISO  4  13 100  14 100  40 101  42 101
M  END
>  <TORSDO>  (104) 
F 15

>  <SCORE>  (104) 
-11.044

>  <name>  (104) 
103

>  <ligand_id>  (104) 
103

>  <original_smiles>  (104) 
[H]OC1([H])C([H])([H])N(C(=O)C([H])(N([H])C(=O)OC2([H])OOC3([H])OC([H])([H])OC([H])(OC(=O)C([H])([H])C4([H])N=C(c5c([H])c([H])c(Cl)c([H])c5[H])c5c(sc(C([H])([H])[H])c5C([H])([H])[H])-n5c(C([H])([H])[H])nnc54)C3([H])OC([H])([H])C2([H])[H])C(C([H])([H])[H])(C([H])([H])[H])C([H])([H])[H])C([H])(C(=O)N([H])C([H])([H])c2c([H])c([H])c(C3=C(C([H])([H])[H])N([H])C([H])([H])S3)c([H])c2[H])C1([H])[H]

>  <smiles>  (104) 
[H]OC1([H])C([H])([H])N(C(=O)C([H])(N([H])C(=O)OC2([H])OOC3([H])OC([H])([H])OC([H])(OC(=O)C([H])([H])C4([H])N=C(c5c([H])c([H])c(Cl)c([H])c5[H])c5c(sc(C([H])([H])[H])c5C([H])([H])[H])-n5c(C([H])([H])[H])nnc54)C3([H])OC([H])([H])C2([H])[H])C(C([H])([H])[H])(C([H])([H])[H])C([H])([H])[H])C([H])(C(=O)N([H])C([H])([H])c2c([H])c([H])c(C3=C(C([H])([H])[H])N([H])C([H])([H])S3)c([H])c2[H])C1([H])[H]

$$$$
104:0:0
     RDKit          3D

 74 81  0  0  1  0  0  0  0  0999 V2000
   25.7550  -24.8530  -15.6200 N   0  0  0  0  0  0  0  0  0  0  0  0
   26.3910  -25.6360  -14.7780 C   0  0  0  0  0  0  0  0  0  0  0  0
   27.0940  -25.1490  -13.8660 O   0  0  0  0  0  0  0  0  0  0  0  0
   26.0380  -26.9660  -15.0510 N   0  0  0  0  0  0  0  0  0  0  0  0
   25.3770  -25.3710  -16.3960 H   0  0  0  0  0  0  0  0  0  0  0  0
   26.4680  -27.7170  -14.5270 H   0  0  0  0  0  0  0  0  0  0  0  0
   24.3250  -28.5130  -16.3890 C   0  0  0  0  0  0  0  0  0  0  0  0
   24.6660  -27.4220  -15.5860 N   0  0  0  0  0  0  0  0  0  0  0  0
   25.2120  -29.1220  -16.9850 O   0  0  0  0  0  0  0  0  0  0  0  0
   23.9370  -26.8380  -15.1670 H   0  0  0  0  0  0  0  0  0  0  0  0
   22.7860  -29.0130  -16.6270 C   0  0  0  0  0  3  0  0  0  0  0  0
   21.3220  -31.2710  -16.9400 C   0  0  0  0  0  0  0  0  0  0  0  0
   20.3430  -30.8810  -16.3080 O   0  0  0  0  0  0  0  0  0  0  0  0
   22.4510  -30.4490  -17.1080 N   0  0  0  0  0  0  0  0  0  0  0  0
   23.2320  -30.8980  -17.5680 H   0  0  0  0  0  0  0  0  0  0  0  0
   21.3180  -32.8050  -17.3220 C   0  0  0  0  0  2  0  0  0  0  0  0
   21.5790  -33.6670  -16.0400 C   0  0  0  0  0  3  0  0  0  0  0  0
   22.9160  -33.2770  -15.6390 N   0  0  0  0  0  0  0  0  0  0  0  0
   21.5200  -35.2010  -16.0840 C   0  0  0  0  0  0  0  0  0  0  0  0
   21.3180  -35.9860  -17.1500 N   0  0  0  0  0  0  0  0  0  0  0  0
   21.4890  -37.2890  -16.7050 N   0  0  0  0  0  0  0  0  0  0  0  0
   21.7830  -37.1960  -15.4040 C   0  0  0  0  0  0  0  0  0  0  0  0
   22.1210  -38.3820  -14.5460 C   0  0  0  0  0  1  0  0  0  0  0  0
   21.7750  -35.9190  -14.9590 N   0  0  0  0  0  0  0  0  0  0  0  0
   21.9810  -35.4130  -13.6570 C   0  0  0  0  0  0  0  0  0  0  0  0
   21.3840  -36.1130  -12.1850 S   0  0  0  0  0  0  0  0  0  0  0  0
   22.0010  -34.7820  -11.2460 C   0  0  0  0  0  0  0  0  0  0  0  0
   21.8000  -34.7620   -9.7640 C   0  0  0  0  0  1  0  0  0  0  0  0
   22.6200  -33.8360  -12.0320 C   0  0  0  0  0  0  0  0  0  0  0  0
   23.1760  -32.5460  -11.4830 C   0  0  0  0  0  1  0  0  0  0  0  0
   22.6520  -34.2350  -13.4130 C   0  0  0  0  0  0  0  0  0  0  0  0
   23.3590  -33.4620  -14.4660 C   0  0  0  0  0  0  0  0  0  0  0  0
   24.6820  -32.8900  -14.1870 C   0  0  0  0  0  0  0  0  0  0  0  0
   25.6810  -33.6770  -13.5840 C   0  0  0  0  0  3  0  0  0  0  0  0
   26.9400  -33.1100  -13.3140 C   0  0  0  0  0  3  0  0  0  0  0  0
   27.1990  -31.7670  -13.6470 C   0  0  0  0  0  0  0  0  0  0  0  0
   28.7370  -31.0730  -13.3100 Cl  0  0  0  0  0  0  0  0  0  0  0  0
   26.2000  -30.9860  -14.2460 C   0  0  0  0  0  3  0  0  0  0  0  0
   24.9400  -31.5470  -14.5130 C   0  0  0  0  0  3  0  0  0  0  0  0
   20.5310  -27.9250  -17.6200 C   0  0  0  0  0  2  0  0  0  0  0  0
   21.3000  -26.8250  -16.9500 C   0  0  0  0  0  2  0  0  0  0  0  0
   22.0450  -28.0090  -17.5430 C   0  0  0  0  0  3  0  0  0  0  0  0
   24.9320  -23.6960  -15.2940 C   0  0  0  0  0  3  0  0  0  0  0  0
   21.8840  -23.9970  -12.8120 C   0  0  0  0  0  3  0  0  0  0  0  0
   21.4580  -22.8000  -11.9510 C   0  0  0  0  0  2  0  0  0  0  0  0
   22.7390  -22.0160  -11.7410 C   0  0  0  0  0  3  0  0  0  0  0  0
   23.5810  -22.2820  -12.9900 C   0  0  0  0  0  2  0  0  0  0  0  0
   23.0690  -23.5270  -13.5620 N   0  0  0  0  0  0  0  0  0  0  0  0
   23.6610  -24.2290  -14.5530 C   0  0  0  0  0  0  0  0  0  0  0  0
   23.2310  -25.3400  -14.8650 O   0  0  0  0  0  0  0  0  0  0  0  0
   19.9060  -25.3970  -13.1120 N   0  0  0  0  0  0  0  0  0  0  0  0
   20.6910  -24.4670  -13.6630 C   0  0  0  0  0  0  0  0  0  0  0  0
   20.4660  -23.9640  -14.7660 O   0  0  0  0  0  0  0  0  0  0  0  0
   20.1730  -25.7740  -12.2120 H   0  0  0  0  0  0  0  0  0  0  0  0
   18.6280  -25.8390  -13.6550 C   0  0  0  0  0  2  0  0  0  0  0  0
   15.3370  -23.1780  -12.6360 C   0  0  0  0  0  0  0  0  0  0  0  0
   16.3750  -23.4090  -11.7090 C   0  0  0  0  0  3  0  0  0  0  0  0
   17.4400  -24.2650  -12.0360 C   0  0  0  0  0  3  0  0  0  0  0  0
   15.3800  -23.8090  -13.8960 C   0  0  0  0  0  3  0  0  0  0  0  0
   16.4480  -24.6660  -14.2240 C   0  0  0  0  0  3  0  0  0  0  0  0
   17.4830  -24.9000  -13.2950 C   0  0  0  0  0  0  0  0  0  0  0  0
   12.1960  -23.5940  -13.2510 C   0  0  0  0  0  1  0  0  0  0  0  0
   12.8850  -22.4680  -12.5050 C   0  0  0  0  0  0  0  0  0  0  0  0
   12.0940  -21.4880  -11.9410 N   0  0  0  0  0  0  0  0  0  0  0  0
   12.7570  -20.5500  -11.0420 C   0  0  0  0  0  2  0  0  0  0  0  0
   14.5180  -20.8640  -11.3440 S   0  0  0  0  0  0  0  0  0  0  0  0
   14.1920  -22.3400  -12.2410 C   0  0  0  0  0  0  0  0  0  0  0  0
   11.0780  -21.5150  -11.9590 H   0  0  0  0  0  0  0  0  0  0  0  0
   23.4300  -22.5050  -10.6040 O   0  0  0  0  0  0  0  0  0  0  0  0
   23.6170  -23.4290  -10.7370 H   0  0  0  0  0  0  0  0  0  0  0  0
   24.6410  -23.0170  -16.6820 C   0  0  1  0  0  0  0  0  0  0  0  0
   25.9450  -22.3730  -17.2090 C   0  0  0  0  0  1  0  0  0  0  0  0
   24.1490  -24.0300  -17.7500 C   0  0  0  0  0  1  0  0  0  0  0  0
   23.5850  -21.9000  -16.5760 C   0  0  0  0  0  1  0  0  0  0  0  0
  1 43  1  0
  1  2  1  0
  2  3  2  0
  4  2  1  0
  4  6  1  0
  5  1  1  0
  7  8  1  0
  8 10  1  0
  8  4  1  0
  9  7  2  0
 11  7  1  0
 12 13  2  0
 14 12  1  0
 14 11  1  0
 15 14  1  0
 16 12  1  0
 17 16  1  0
 17 18  1  0
 18 32  2  0
 19 17  1  0
 19 24  1  0
 20 21  1  0
 20 19  2  0
 21 22  2  0
 22 24  1  0
 22 23  1  0
 24 25  1  0
 25 31  2  0
 25 26  1  0
 26 27  1  0
 27 28  1  0
 29 30  1  0
 29 27  2  0
 31 29  1  0
 32 33  1  0
 32 31  1  0
 33 34  1  0
 34 35  2  0
 36 35  1  0
 36 37  1  0
 38 36  2  0
 39 38  1  0
 39 33  2  0
 40 42  1  0
 40 41  1  0
 42 41  1  0
 42 11  1  0
 43 49  1  0
 44 52  1  0
 44 45  1  0
 45 46  1  0
 46 69  1  0
 47 46  1  0
 48 47  1  0
 48 44  1  0
 49 48  1  0
 50 49  2  0
 51 54  1  0
 52 51  1  0
 53 52  2  0
 55 61  1  0
 55 51  1  0
 56 67  1  0
 56 57  1  0
 58 57  2  0
 59 56  2  0
 60 59  1  0
 60 61  2  0
 61 58  1  0
 62 63  1  0
 63 67  2  0
 63 64  1  0
 64 65  1  0
 66 65  1  0
 67 66  1  0
 68 64  1  0
 70 69  1  0
 71 74  1  1
 71 43  1  0
 72 71  1  0
 73 71  1  0
M  ISO  4   2 101   4 101  12 100  14 100
M  END
>  <TORSDO>  (105) 
F 15

>  <SCORE>  (105) 
-14.447

>  <name>  (105) 
104

>  <ligand_id>  (105) 
104

>  <original_smiles>  (105) 
[H]OC1([H])C([H])([H])N(C(=O)C([H])(N([H])C(=O)N([H])N([H])C(=O)C([H])(N([H])C(=O)C([H])([H])C2([H])N=C(c3c([H])c([H])c(Cl)c([H])c3[H])c3c(sc(C([H])([H])[H])c3C([H])([H])[H])-n3c(C([H])([H])[H])nnc32)C2([H])C([H])([H])C2([H])[H])C(C([H])([H])[H])(C([H])([H])[H])C([H])([H])[H])C([H])(C(=O)N([H])C([H])([H])c2c([H])c([H])c(C3=C(C([H])([H])[H])N([H])C([H])([H])S3)c([H])c2[H])C1([H])[H]

>  <smiles>  (105) 
[H]OC1([H])C([H])([H])N(C(=O)C([H])(N([H])C(=O)N([H])N([H])C(=O)C([H])(N([H])C(=O)C([H])([H])C2([H])N=C(c3c([H])c([H])c(Cl)c([H])c3[H])c3c(sc(C([H])([H])[H])c3C([H])([H])[H])-n3c(C([H])([H])[H])nnc32)C2([H])C([H])([H])C2([H])[H])C(C([H])([H])[H])(C([H])([H])[H])C([H])([H])[H])C([H])(C(=O)N([H])C([H])([H])c2c([H])c([H])c(C3=C(C([H])([H])[H])N([H])C([H])([H])S3)c([H])c2[H])C1([H])[H]

$$$$
105:0:0
     RDKit          3D

 84 91  0  0  1  0  0  0  0  0999 V2000
   22.6050  -29.1060  -18.1460 C   0  0  0  0  0  3  0  0  0  0  0  0
   21.4590  -29.5810  -18.8120 C   0  0  0  0  0  0  0  0  0  0  0  0
   23.6250  -28.5210  -18.9290 C   0  0  0  0  0  0  0  0  0  0  0  0
   22.3640  -28.8690  -20.7940 C   0  0  0  0  0  0  0  0  0  0  0  0
   25.1540  -27.4410  -17.3020 C   0  0  0  0  0  0  0  0  0  0  0  0
   21.3610  -29.4390  -20.1480 N   0  0  0  0  0  0  0  0  0  0  0  0
   23.4820  -28.4130  -20.2680 N   0  0  0  0  0  0  0  0  0  0  0  0
   22.2580  -28.8130  -22.1450 N   0  0  0  0  0  0  0  0  0  0  0  0
   24.8780  -28.1600  -18.3880 N   0  0  0  0  0  0  0  0  0  0  0  0
   26.4660  -27.1960  -17.2000 N   0  0  0  0  0  0  0  0  0  0  0  0
   24.3390  -27.0950  -16.4460 O   0  0  0  0  0  0  0  0  0  0  0  0
   21.5560  -29.3980  -22.5870 H   0  0  0  0  0  0  0  0  0  0  0  0
   23.0660  -28.5540  -22.7040 H   0  0  0  0  0  0  0  0  0  0  0  0
   25.6620  -28.4510  -18.9390 H   0  0  0  0  0  0  0  0  0  0  0  0
   26.9390  -26.6630  -17.9150 H   0  0  0  0  0  0  0  0  0  0  0  0
   20.4690  -30.9750  -17.0620 C   0  0  0  0  0  0  0  0  0  0  0  0
   20.1620  -30.6340  -15.9130 O   0  0  0  0  0  0  0  0  0  0  0  0
   20.3660  -30.1540  -18.1140 N   0  0  0  0  0  0  0  0  0  0  0  0
   19.7820  -30.6170  -18.7980 H   0  0  0  0  0  0  0  0  0  0  0  0
   20.9590  -32.3990  -17.3630 C   0  0  0  0  0  2  0  0  0  0  0  0
   21.4620  -33.1510  -16.1160 C   0  0  0  0  0  3  0  0  0  0  0  0
   22.8290  -32.7270  -15.8120 N   0  0  0  0  0  0  0  0  0  0  0  0
   21.4180  -34.6650  -16.2570 C   0  0  0  0  0  0  0  0  0  0  0  0
   21.1300  -35.3530  -17.3690 N   0  0  0  0  0  0  0  0  0  0  0  0
   21.2880  -36.6860  -17.0310 N   0  0  0  0  0  0  0  0  0  0  0  0
   21.6720  -36.6940  -15.7510 C   0  0  0  0  0  0  0  0  0  0  0  0
   22.0230  -37.9440  -15.0040 C   0  0  0  0  0  1  0  0  0  0  0  0
   21.7360  -35.4550  -15.2140 N   0  0  0  0  0  0  0  0  0  0  0  0
   22.0480  -35.0300  -13.9040 C   0  0  0  0  0  0  0  0  0  0  0  0
   21.5280  -35.8120  -12.4450 S   0  0  0  0  0  0  0  0  0  0  0  0
   22.2410  -34.5650  -11.4650 C   0  0  0  0  0  0  0  0  0  0  0  0
   22.1360  -34.6540   -9.9680 C   0  0  0  0  0  1  0  0  0  0  0  0
   22.8330  -33.5850  -12.2310 C   0  0  0  0  0  0  0  0  0  0  0  0
   23.4660  -32.3530  -11.6340 C   0  0  0  0  0  1  0  0  0  0  0  0
   22.7540  -33.8790  -13.6400 C   0  0  0  0  0  0  0  0  0  0  0  0
   23.3890  -33.0260  -14.7050 C   0  0  0  0  0  0  0  0  0  0  0  0
   24.7590  -32.5190  -14.4760 C   0  0  0  0  0  0  0  0  0  0  0  0
   25.7380  -33.3630  -13.9090 C   0  0  0  0  0  3  0  0  0  0  0  0
   27.0360  -32.8760  -13.6710 C   0  0  0  0  0  3  0  0  0  0  0  0
   27.3570  -31.5500  -14.0010 C   0  0  0  0  0  0  0  0  0  0  0  0
   28.9450  -30.9370  -13.7050 Cl  0  0  0  0  0  0  0  0  0  0  0  0
   26.3840  -30.7110  -14.5780 C   0  0  0  0  0  3  0  0  0  0  0  0
   25.0860  -31.1900  -14.8190 C   0  0  0  0  0  3  0  0  0  0  0  0
   26.7240  -27.0050  -15.7500 N   0  0  0  0  0  4  0  0  0  0  0  0
   27.0250  -27.8690  -15.3350 H   0  0  0  0  0  0  0  0  0  0  0  0
   25.7880  -26.7920  -15.4010 H   0  0  0  0  0  0  0  0  0  0  0  0
   25.9150  -24.5550  -15.5080 N   0  0  0  0  0  0  0  0  0  0  0  0
   26.9030  -25.0100  -14.7160 C   0  0  0  0  0  0  0  0  0  0  0  0
   27.1450  -24.5760  -13.5880 O   0  0  0  0  0  0  0  0  0  0  0  0
   27.6680  -25.9300  -15.3060 N   0  0  0  0  0  0  0  0  0  0  0  0
   25.8380  -24.8800  -16.4640 H   0  0  0  0  0  0  0  0  0  0  0  0
   28.4820  -26.2740  -14.8150 H   0  0  0  0  0  0  0  0  0  0  0  0
   24.9860  -23.4740  -15.2080 C   0  0  0  0  0  3  0  0  0  0  0  0
   21.8480  -23.8350  -12.8680 C   0  0  0  0  0  3  0  0  0  0  0  0
   21.3490  -22.6110  -12.0840 C   0  0  0  0  0  2  0  0  0  0  0  0
   22.5900  -21.7690  -11.8680 C   0  0  0  0  0  3  0  0  0  0  0  0
   23.4820  -22.0750  -13.0670 C   0  0  0  0  0  2  0  0  0  0  0  0
   23.0410  -23.3710  -13.5980 N   0  0  0  0  0  0  0  0  0  0  0  0
   23.7360  -24.0930  -14.5150 C   0  0  0  0  0  0  0  0  0  0  0  0
   23.4280  -25.2570  -14.7850 O   0  0  0  0  0  0  0  0  0  0  0  0
   19.9330  -25.3140  -13.1720 N   0  0  0  0  0  0  0  0  0  0  0  0
   20.7060  -24.3820  -13.7390 C   0  0  0  0  0  0  0  0  0  0  0  0
   20.4960  -23.9310  -14.8670 O   0  0  0  0  0  0  0  0  0  0  0  0
   20.1700  -25.6280  -12.2410 H   0  0  0  0  0  0  0  0  0  0  0  0
   18.6910  -25.8330  -13.7390 C   0  0  0  0  0  2  0  0  0  0  0  0
   15.2520  -23.3570  -12.7700 C   0  0  0  0  0  0  0  0  0  0  0  0
   16.2880  -23.5270  -11.8280 C   0  0  0  0  0  3  0  0  0  0  0  0
   17.4010  -24.3240  -12.1410 C   0  0  0  0  0  3  0  0  0  0  0  0
   15.3420  -23.9840  -14.0280 C   0  0  0  0  0  3  0  0  0  0  0  0
   16.4600  -24.7810  -14.3430 C   0  0  0  0  0  3  0  0  0  0  0  0
   17.4930  -24.9600  -13.3980 C   0  0  0  0  0  0  0  0  0  0  0  0
   12.1490  -23.9400  -13.4400 C   0  0  0  0  0  1  0  0  0  0  0  0
   12.7620  -22.7810  -12.6770 C   0  0  0  0  0  0  0  0  0  0  0  0
   11.9080  -21.8470  -12.1290 N   0  0  0  0  0  0  0  0  0  0  0  0
   12.5030  -20.8760  -11.2170 C   0  0  0  0  0  2  0  0  0  0  0  0
   14.2820  -21.0870  -11.4880 S   0  0  0  0  0  0  0  0  0  0  0  0
   14.0570  -22.5820  -12.3920 C   0  0  0  0  0  0  0  0  0  0  0  0
   10.8980  -21.9290  -12.1690 H   0  0  0  0  0  0  0  0  0  0  0  0
   23.2600  -22.1780  -10.6830 O   0  0  0  0  0  0  0  0  0  0  0  0
   23.4950  -23.0930  -10.7730 H   0  0  0  0  0  0  0  0  0  0  0  0
   24.6840  -22.7650  -16.5780 C   0  0  1  0  0  0  0  0  0  0  0  0
   25.9670  -22.0440  -17.0680 C   0  0  0  0  0  1  0  0  0  0  0  0
   24.2260  -23.7340  -17.7000 C   0  0  0  0  0  1  0  0  0  0  0  0
   23.6030  -21.6900  -16.4020 C   0  0  0  0  0  1  0  0  0  0  0  0
  2  1  2  0
  2 18  1  0
  3  9  1  0
  3  1  1  0
  4  7  1  0
  4  6  2  0
  5 10  1  0
  5 11  2  0
  6  2  1  0
  7  3  2  0
  8  4  1  0
  9  5  1  0
 10 44  1  0
 12  8  1  0
 13  8  1  0
 14  9  1  0
 15 10  1  0
 16 17  2  0
 18 16  1  0
 19 18  1  0
 20 16  1  0
 21 20  1  0
 21 22  1  0
 22 36  2  0
 23 21  1  0
 23 28  1  0
 24 25  1  0
 24 23  2  0
 25 26  2  0
 26 28  1  0
 26 27  1  0
 28 29  1  0
 29 35  2  0
 29 30  1  0
 30 31  1  0
 31 32  1  0
 33 34  1  0
 33 31  2  0
 35 33  1  0
 36 37  1  0
 36 35  1  0
 37 38  1  0
 38 39  2  0
 40 41  1  0
 40 39  1  0
 42 40  2  0
 43 42  1  0
 43 37  2  0
 44 46  1  0
 44 45  1  0
 44 50  1  0
 47 53  1  0
 47 48  1  0
 48 49  2  0
 50 52  1  0
 50 48  1  0
 51 47  1  0
 53 59  1  0
 54 62  1  0
 54 55  1  0
 55 56  1  0
 56 79  1  0
 57 56  1  0
 58 57  1  0
 58 54  1  0
 59 58  1  0
 60 59  2  0
 61 64  1  0
 62 61  1  0
 63 62  2  0
 65 71  1  0
 65 61  1  0
 66 77  1  0
 66 67  1  0
 68 67  2  0
 69 66  2  0
 70 69  1  0
 70 71  2  0
 71 68  1  0
 72 73  1  0
 73 77  2  0
 73 74  1  0
 74 75  1  0
 76 75  1  0
 77 76  1  0
 78 74  1  0
 80 79  1  0
 81 84  1  1
 81 53  1  0
 82 81  1  0
 83 81  1  0
M  ISO  4  16 100  18 100  48 101  50 101
M  END
>  <TORSDO>  (106) 
F 14

>  <SCORE>  (106) 
-14.569

>  <name>  (106) 
105

>  <ligand_id>  (106) 
105

>  <original_smiles>  (106) 
[H]OC1([H])C([H])([H])N(C(=O)C([H])(N([H])C(=O)N([H])[N+]([H])([H])N([H])C(=O)N([H])c2nc(N([H])[H])nc(N([H])C(=O)C([H])([H])C3([H])N=C(c4c([H])c([H])c(Cl)c([H])c4[H])c4c(sc(C([H])([H])[H])c4C([H])([H])[H])-n4c(C([H])([H])[H])nnc43)c2[H])C(C([H])([H])[H])(C([H])([H])[H])C([H])([H])[H])C([H])(C(=O)N([H])C([H])([H])c2c([H])c([H])c(C3=C(C([H])([H])[H])N([H])C([H])([H])S3)c([H])c2[H])C1([H])[H]

>  <smiles>  (106) 
[H]OC1([H])C([H])([H])N(C(=O)C([H])(N([H])C(=O)N([H])[N+]([H])([H])N([H])C(=O)N([H])c2nc(N([H])[H])nc(N([H])C(=O)C([H])([H])C3([H])N=C(c4c([H])c([H])c(Cl)c([H])c4[H])c4c(sc(C([H])([H])[H])c4C([H])([H])[H])-n4c(C([H])([H])[H])nnc43)c2[H])C(C([H])([H])[H])(C([H])([H])[H])C([H])([H])[H])C([H])(C(=O)N([H])C([H])([H])c2c([H])c([H])c(C3=C(C([H])([H])[H])N([H])C([H])([H])S3)c([H])c2[H])C1([H])[H]

$$$$
106:0:0
     RDKit          3D

 73 80  0  0  1  0  0  0  0  0999 V2000
   25.7850  -24.7740  -15.5060 N   0  0  0  0  0  0  0  0  0  0  0  0
   26.6190  -25.4000  -14.6950 C   0  0  0  0  0  0  0  0  0  0  0  0
   27.2600  -24.8210  -13.8050 O   0  0  0  0  0  0  0  0  0  0  0  0
   26.5040  -26.7450  -14.8750 N   0  0  0  0  0  0  0  0  0  0  0  0
   25.3650  -25.3880  -16.1850 H   0  0  0  0  0  0  0  0  0  0  0  0
   27.0300  -27.3050  -14.2160 H   0  0  0  0  0  0  0  0  0  0  0  0
   24.9330  -23.6380  -15.1970 C   0  0  0  0  0  3  0  0  0  0  0  0
   21.8240  -23.9170  -12.7930 C   0  0  0  0  0  3  0  0  0  0  0  0
   21.3710  -22.6950  -11.9810 C   0  0  0  0  0  2  0  0  0  0  0  0
   22.6420  -21.8980  -11.7650 C   0  0  0  0  0  3  0  0  0  0  0  0
   23.5120  -22.2010  -12.9860 C   0  0  0  0  0  2  0  0  0  0  0  0
   23.0240  -23.4720  -13.5310 N   0  0  0  0  0  0  0  0  0  0  0  0
   23.6610  -24.1990  -14.4810 C   0  0  0  0  0  0  0  0  0  0  0  0
   23.2780  -25.3350  -14.7750 O   0  0  0  0  0  0  0  0  0  0  0  0
   19.8670  -25.3450  -13.0930 N   0  0  0  0  0  0  0  0  0  0  0  0
   20.6510  -24.4180  -13.6550 C   0  0  0  0  0  0  0  0  0  0  0  0
   20.4330  -23.9340  -14.7680 O   0  0  0  0  0  0  0  0  0  0  0  0
   20.1270  -25.6970  -12.1830 H   0  0  0  0  0  0  0  0  0  0  0  0
   18.6010  -25.8150  -13.6420 C   0  0  0  0  0  2  0  0  0  0  0  0
   15.2470  -23.2200  -12.6550 C   0  0  0  0  0  0  0  0  0  0  0  0
   16.2730  -23.4400  -11.7140 C   0  0  0  0  0  3  0  0  0  0  0  0
   17.3590  -24.2740  -12.0300 C   0  0  0  0  0  3  0  0  0  0  0  0
   15.3210  -23.8400  -13.9200 C   0  0  0  0  0  3  0  0  0  0  0  0
   16.4100  -24.6750  -14.2360 C   0  0  0  0  0  3  0  0  0  0  0  0
   17.4350  -24.8980  -13.2940 C   0  0  0  0  0  0  0  0  0  0  0  0
   12.1290  -23.6720  -13.3470 C   0  0  0  0  0  1  0  0  0  0  0  0
   12.7820  -22.5500  -12.5660 C   0  0  0  0  0  0  0  0  0  0  0  0
   11.9630  -21.5920  -12.0040 N   0  0  0  0  0  0  0  0  0  0  0  0
   12.5920  -20.6600  -11.0750 C   0  0  0  0  0  2  0  0  0  0  0  0
   14.3630  -20.9400  -11.3450 S   0  0  0  0  0  0  0  0  0  0  0  0
   14.0820  -22.4050  -12.2710 C   0  0  0  0  0  0  0  0  0  0  0  0
   10.9490  -21.6340  -12.0460 H   0  0  0  0  0  0  0  0  0  0  0  0
   23.3100  -22.3470  -10.5970 O   0  0  0  0  0  0  0  0  0  0  0  0
   23.5140  -23.2710  -10.7030 H   0  0  0  0  0  0  0  0  0  0  0  0
   24.6290  -22.9360  -16.5680 C   0  0  1  0  0  0  0  0  0  0  0  0
   25.9380  -22.3120  -17.1060 C   0  0  0  0  0  1  0  0  0  0  0  0
   24.0840  -23.9090  -17.6470 C   0  0  0  0  0  1  0  0  0  0  0  0
   23.6130  -21.7860  -16.4100 C   0  0  0  0  0  1  0  0  0  0  0  0
   25.8660  -27.5030  -16.0140 C   0  0  0  0  0  2  0  0  0  0  0  0
   23.6960  -28.7760  -16.7320 C   0  0  0  0  0  3  0  0  0  0  0  0
   24.4030  -28.0130  -15.8420 C   0  0  0  0  0  3  0  0  0  0  0  0
   20.6750  -31.2040  -16.8000 C   0  0  0  0  0  0  0  0  0  0  0  0
   19.9660  -30.8040  -15.8720 O   0  0  0  0  0  0  0  0  0  0  0  0
   21.2030  -28.1130  -18.8130 C   0  0  0  0  0  2  0  0  0  0  0  0
   22.1220  -29.1770  -19.4550 C   0  0  0  0  0  2  0  0  0  0  0  0
   21.3480  -28.0050  -17.2730 C   0  0  0  0  0  2  0  0  0  0  0  0
   22.0680  -30.5460  -18.7320 C   0  0  0  0  0  2  0  0  0  0  0  0
   22.1750  -29.1510  -16.6520 C   0  0  0  0  0  3  0  0  0  0  0  0
   21.6920  -30.4200  -17.3110 N   0  0  0  0  0  0  0  0  0  0  0  0
   20.5800  -32.7150  -17.1670 C   0  0  0  0  0  2  0  0  0  0  0  0
   21.0630  -33.5740  -15.9630 C   0  0  0  0  0  3  0  0  0  0  0  0
   22.4190  -33.1400  -15.6450 N   0  0  0  0  0  0  0  0  0  0  0  0
   21.0530  -35.0880  -16.1360 C   0  0  0  0  0  0  0  0  0  0  0  0
   20.7840  -35.7700  -17.2550 N   0  0  0  0  0  0  0  0  0  0  0  0
   21.0070  -37.1000  -16.9480 N   0  0  0  0  0  0  0  0  0  0  0  0
   21.3980  -37.1200  -15.6690 C   0  0  0  0  0  0  0  0  0  0  0  0
   21.8100  -38.3710  -14.9510 C   0  0  0  0  0  1  0  0  0  0  0  0
   21.4110  -35.8910  -15.1090 N   0  0  0  0  0  0  0  0  0  0  0  0
   21.7140  -35.4900  -13.7890 C   0  0  0  0  0  0  0  0  0  0  0  0
   21.2390  -36.3270  -12.3450 S   0  0  0  0  0  0  0  0  0  0  0  0
   21.9120  -35.0730  -11.3410 C   0  0  0  0  0  0  0  0  0  0  0  0
   21.8230  -35.1920   -9.8540 C   0  0  0  0  0  1  0  0  0  0  0  0
   22.4570  -34.0510  -12.0880 C   0  0  0  0  0  0  0  0  0  0  0  0
   23.0350  -32.8090  -11.4600 C   0  0  0  0  0  1  0  0  0  0  0  0
   22.3820  -34.3190  -13.5000 C   0  0  0  0  0  0  0  0  0  0  0  0
   22.9820  -33.4290  -14.5390 C   0  0  0  0  0  0  0  0  0  0  0  0
   24.3250  -32.8670  -14.3100 C   0  0  0  0  0  0  0  0  0  0  0  0
   25.3610  -33.6850  -13.8140 C   0  0  0  0  0  3  0  0  0  0  0  0
   26.6360  -33.1400  -13.5750 C   0  0  0  0  0  3  0  0  0  0  0  0
   26.8760  -31.7770  -13.8310 C   0  0  0  0  0  0  0  0  0  0  0  0
   28.4340  -31.0990  -13.5420 Cl  0  0  0  0  0  0  0  0  0  0  0  0
   25.8420  -30.9630  -14.3190 C   0  0  0  0  0  3  0  0  0  0  0  0
   24.5690  -31.5030  -14.5660 C   0  0  0  0  0  3  0  0  0  0  0  0
  1  7  1  0
  1  2  1  0
  2  3  2  0
  4  2  1  0
  4  6  1  0
  5  1  1  0
  7 13  1  0
  8 16  1  0
  8  9  1  0
  9 10  1  0
 10 33  1  0
 11 10  1  0
 12 11  1  0
 12  8  1  0
 13 12  1  0
 14 13  2  0
 15 18  1  0
 16 15  1  0
 17 16  2  0
 19 25  1  0
 19 15  1  0
 20 31  1  0
 20 21  1  0
 22 21  2  0
 23 20  2  0
 24 23  1  0
 24 25  2  0
 25 22  1  0
 26 27  1  0
 27 31  2  0
 27 28  1  0
 28 29  1  0
 30 29  1  0
 31 30  1  0
 32 28  1  0
 34 33  1  0
 35 38  1  1
 35  7  1  0
 36 35  1  0
 37 35  1  0
 39 41  1  0
 39  4  1  0
 40 41  2  0
 42 43  2  0
 44 46  1  0
 45 44  1  0
 45 47  1  0
 46 48  1  0
 47 49  1  0
 48 40  1  0
 49 42  1  0
 49 48  1  0
 50 42  1  0
 51 50  1  0
 51 52  1  0
 52 66  2  0
 53 51  1  0
 53 58  1  0
 54 55  1  0
 54 53  2  0
 55 56  2  0
 56 58  1  0
 56 57  1  0
 58 59  1  0
 59 65  2  0
 59 60  1  0
 60 61  1  0
 61 62  1  0
 63 64  1  0
 63 61  2  0
 65 63  1  0
 66 67  1  0
 66 65  1  0
 67 68  1  0
 68 69  2  0
 70 69  1  0
 70 71  1  0
 72 70  2  0
 73 72  1  0
 73 67  2  0
M  ISO  4   2 101   4 101  42 100  49 100
M  END
>  <TORSDO>  (107) 
F 14

>  <SCORE>  (107) 
-14.273

>  <name>  (107) 
106

>  <ligand_id>  (107) 
106

>  <original_smiles>  (107) 
[H]OC1([H])C([H])([H])N(C(=O)C([H])(N([H])C(=O)N([H])C([H])([H])C([H])=C([H])C2([H])N(C(=O)C([H])([H])C3([H])N=C(c4c([H])c([H])c(Cl)c([H])c4[H])c4c(sc(C([H])([H])[H])c4C([H])([H])[H])-n4c(C([H])([H])[H])nnc43)C([H])([H])C([H])([H])C([H])([H])C2([H])[H])C(C([H])([H])[H])(C([H])([H])[H])C([H])([H])[H])C([H])(C(=O)N([H])C([H])([H])c2c([H])c([H])c(C3=C(C([H])([H])[H])N([H])C([H])([H])S3)c([H])c2[H])C1([H])[H]

>  <smiles>  (107) 
[H]OC1([H])C([H])([H])N(C(=O)C([H])(N([H])C(=O)N([H])C([H])([H])C([H])=C([H])C2([H])N(C(=O)C([H])([H])C3([H])N=C(c4c([H])c([H])c(Cl)c([H])c4[H])c4c(sc(C([H])([H])[H])c4C([H])([H])[H])-n4c(C([H])([H])[H])nnc43)C([H])([H])C([H])([H])C([H])([H])C2([H])[H])C(C([H])([H])[H])(C([H])([H])[H])C([H])([H])[H])C([H])(C(=O)N([H])C([H])([H])c2c([H])c([H])c(C3=C(C([H])([H])[H])N([H])C([H])([H])S3)c([H])c2[H])C1([H])[H]

$$$$
107:0:0
     RDKit          3D

 81 88  0  0  1  0  0  0  0  0999 V2000
   27.6030  -26.8840  -17.1350 C   0  0  0  0  0  3  0  0  0  0  0  0
   25.6400  -27.6790  -18.4610 C   0  0  0  0  0  0  0  0  0  0  0  0
   28.5750  -26.8940  -18.2890 C   0  0  0  0  0  1  0  0  0  0  0  0
   26.2980  -27.2570  -17.2550 N   0  0  0  0  0  0  0  0  0  0  0  0
   28.0780  -26.4280  -15.9490 N   0  0  0  0  0  0  0  0  0  0  0  0
   26.2420  -28.1990  -19.4040 O   0  0  0  0  0  0  0  0  0  0  0  0
   25.7560  -27.1370  -16.4140 H   0  0  0  0  0  0  0  0  0  0  0  0
   29.0350  -26.1350  -15.7900 H   0  0  0  0  0  0  0  0  0  0  0  0
   27.2790  -26.4110  -14.8180 O   0  0  0  0  0  0  0  0  0  0  0  0
   25.9240  -24.7310  -15.3920 N   0  0  0  0  0  0  0  0  0  0  0  0
   26.8930  -25.1540  -14.5030 C   0  0  0  0  0  0  0  0  0  0  0  0
   27.2420  -24.5580  -13.4840 O   0  0  0  0  0  0  0  0  0  0  0  0
   25.7140  -25.3410  -16.1560 H   0  0  0  0  0  0  0  0  0  0  0  0
   24.9840  -23.6290  -15.1970 C   0  0  0  0  0  3  0  0  0  0  0  0
   21.8680  -23.9480  -12.8080 C   0  0  0  0  0  3  0  0  0  0  0  0
   21.4190  -22.7330  -11.9810 C   0  0  0  0  0  2  0  0  0  0  0  0
   22.6890  -21.9390  -11.7560 C   0  0  0  0  0  3  0  0  0  0  0  0
   23.5570  -22.2310  -12.9790 C   0  0  0  0  0  2  0  0  0  0  0  0
   23.0700  -23.4960  -13.5420 N   0  0  0  0  0  0  0  0  0  0  0  0
   23.7140  -24.2120  -14.4990 C   0  0  0  0  0  0  0  0  0  0  0  0
   23.3540  -25.3550  -14.8100 O   0  0  0  0  0  0  0  0  0  0  0  0
   19.9030  -25.3540  -13.1270 N   0  0  0  0  0  0  0  0  0  0  0  0
   20.6960  -24.4310  -13.6780 C   0  0  0  0  0  0  0  0  0  0  0  0
   20.4860  -23.9360  -14.7880 O   0  0  0  0  0  0  0  0  0  0  0  0
   20.1550  -25.7180  -12.2190 H   0  0  0  0  0  0  0  0  0  0  0  0
   18.6340  -25.8080  -13.6820 C   0  0  0  0  0  2  0  0  0  0  0  0
   15.2910  -23.2190  -12.6480 C   0  0  0  0  0  0  0  0  0  0  0  0
   16.3260  -23.4440  -11.7170 C   0  0  0  0  0  3  0  0  0  0  0  0
   17.4080  -24.2780  -12.0490 C   0  0  0  0  0  3  0  0  0  0  0  0
   15.3520  -23.8340  -13.9160 C   0  0  0  0  0  3  0  0  0  0  0  0
   16.4370  -24.6660  -14.2480 C   0  0  0  0  0  3  0  0  0  0  0  0
   17.4700  -24.8950  -13.3170 C   0  0  0  0  0  0  0  0  0  0  0  0
   12.1600  -23.6960  -13.2690 C   0  0  0  0  0  1  0  0  0  0  0  0
   12.8230  -22.5630  -12.5120 C   0  0  0  0  0  0  0  0  0  0  0  0
   12.0110  -21.6050  -11.9410 N   0  0  0  0  0  0  0  0  0  0  0  0
   12.6540  -20.6580  -11.0390 C   0  0  0  0  0  2  0  0  0  0  0  0
   14.4200  -20.9300  -11.3420 S   0  0  0  0  0  0  0  0  0  0  0  0
   14.1270  -22.4080  -12.2470 C   0  0  0  0  0  0  0  0  0  0  0  0
   10.9970  -21.6570  -11.9560 H   0  0  0  0  0  0  0  0  0  0  0  0
   23.3560  -22.4020  -10.5930 O   0  0  0  0  0  0  0  0  0  0  0  0
   23.5520  -23.3270  -10.7070 H   0  0  0  0  0  0  0  0  0  0  0  0
   24.6950  -22.9950  -16.6080 C   0  0  1  0  0  0  0  0  0  0  0  0
   25.9990  -22.3640  -17.1490 C   0  0  0  0  0  1  0  0  0  0  0  0
   24.2090  -24.0150  -17.6540 C   0  0  0  0  0  1  0  0  0  0  0  0
   23.6400  -21.8730  -16.5320 C   0  0  0  0  0  1  0  0  0  0  0  0
   24.1640  -27.2710  -18.5440 C   0  0  0  0  0  2  0  0  0  0  0  0
   22.6100  -29.1740  -18.3480 C   0  0  0  0  0  0  0  0  0  0  0  0
   23.2760  -28.2860  -19.0830 N   0  0  0  0  0  0  0  0  0  0  0  0
   22.8330  -29.3550  -17.1510 O   0  0  0  0  0  0  0  0  0  0  0  0
   23.0240  -28.2490  -20.0630 H   0  0  0  0  0  0  0  0  0  0  0  0
   20.3550  -30.5300  -20.8040 C   0  0  0  0  0  3  0  0  0  0  0  0
   21.5720  -29.8980  -19.1380 C   0  0  0  0  0  0  0  0  0  0  0  0
   20.7800  -30.9390  -18.7230 C   0  0  0  0  0  0  0  0  0  0  0  0
   21.2870  -29.6350  -20.4800 N   0  0  0  0  0  0  0  0  0  0  0  0
   20.0190  -31.3630  -19.7850 O   0  0  0  0  0  0  0  0  0  0  0  0
   20.6620  -31.6180  -17.4440 C   0  0  0  0  0  0  0  0  0  0  0  0
   20.3300  -31.0380  -16.4060 O   0  0  0  0  0  0  0  0  0  0  0  0
   20.9210  -33.1210  -17.4850 C   0  0  0  0  0  2  0  0  0  0  0  0
   21.4490  -33.7320  -16.1710 C   0  0  0  0  0  3  0  0  0  0  0  0
   22.7670  -33.1800  -15.8510 N   0  0  0  0  0  0  0  0  0  0  0  0
   21.5260  -35.2460  -16.2220 C   0  0  0  0  0  0  0  0  0  0  0  0
   21.3480  -36.0190  -17.3020 N   0  0  0  0  0  0  0  0  0  0  0  0
   21.5870  -37.3130  -16.8780 N   0  0  0  0  0  0  0  0  0  0  0  0
   21.9030  -37.2180  -15.5810 C   0  0  0  0  0  0  0  0  0  0  0  0
   22.2910  -38.3940  -14.7410 C   0  0  0  0  0  1  0  0  0  0  0  0
   21.8570  -35.9480  -15.1230 N   0  0  0  0  0  0  0  0  0  0  0  0
   22.0750  -35.4240  -13.8340 C   0  0  0  0  0  0  0  0  0  0  0  0
   21.5340  -36.1510  -12.3550 S   0  0  0  0  0  0  0  0  0  0  0  0
   22.1180  -34.8000  -11.4290 C   0  0  0  0  0  0  0  0  0  0  0  0
   21.9480  -34.8050   -9.9430 C   0  0  0  0  0  1  0  0  0  0  0  0
   22.6810  -33.8270  -12.2270 C   0  0  0  0  0  0  0  0  0  0  0  0
   23.2020  -32.5270  -11.6720 C   0  0  0  0  0  1  0  0  0  0  0  0
   22.6890  -34.2090  -13.6170 C   0  0  0  0  0  0  0  0  0  0  0  0
   23.3080  -33.3770  -14.7040 C   0  0  0  0  0  0  0  0  0  0  0  0
   24.6300  -32.7620  -14.4540 C   0  0  0  0  0  0  0  0  0  0  0  0
   25.6590  -33.5160  -13.8420 C   0  0  0  0  0  3  0  0  0  0  0  0
   26.9050  -32.9190  -13.5730 C   0  0  0  0  0  3  0  0  0  0  0  0
   27.1310  -31.5740  -13.9150 C   0  0  0  0  0  0  0  0  0  0  0  0
   28.6540  -30.8410  -13.5830 Cl  0  0  0  0  0  0  0  0  0  0  0  0
   26.1140  -30.8230  -14.5350 C   0  0  0  0  0  3  0  0  0  0  0  0
   24.8660  -31.4160  -14.8060 C   0  0  0  0  0  3  0  0  0  0  0  0
  1  3  1  0
  1  5  1  0
  2  4  1  0
  4  1  1  0
  4  7  1  0
  5  8  1  0
  5  9  1  0
  6  2  2  0
  9 11  1  0
 10 14  1  0
 10 11  1  0
 11 12  2  0
 13 10  1  0
 14 20  1  0
 15 23  1  0
 15 16  1  0
 16 17  1  0
 17 40  1  0
 18 17  1  0
 19 18  1  0
 19 15  1  0
 20 19  1  0
 21 20  2  0
 22 25  1  0
 23 22  1  0
 24 23  2  0
 26 32  1  0
 26 22  1  0
 27 38  1  0
 27 28  1  0
 29 28  2  0
 30 27  2  0
 31 30  1  0
 31 32  2  0
 32 29  1  0
 33 34  1  0
 34 38  2  0
 34 35  1  0
 35 36  1  0
 37 36  1  0
 38 37  1  0
 39 35  1  0
 41 40  1  0
 42 45  1  1
 42 14  1  0
 43 42  1  0
 44 42  1  0
 46  2  1  0
 47 49  2  0
 48 46  1  0
 48 47  1  0
 50 48  1  0
 51 54  2  0
 51 55  1  0
 52 53  2  0
 52 47  1  0
 53 56  1  0
 54 52  1  0
 55 53  1  0
 56 57  2  0
 58 56  1  0
 59 58  1  0
 59 60  1  0
 60 74  2  0
 61 59  1  0
 61 66  1  0
 62 63  1  0
 62 61  2  0
 63 64  2  0
 64 66  1  0
 64 65  1  0
 66 67  1  0
 67 73  2  0
 67 68  1  0
 68 69  1  0
 69 70  1  0
 71 72  1  0
 71 69  2  0
 73 71  1  0
 74 75  1  0
 74 73  1  0
 75 76  1  0
 76 77  2  0
 78 79  1  0
 78 77  1  0
 80 78  2  0
 81 80  1  0
 81 75  2  0
M  ISO  4   9 101  11 101  53 100  56 100
M  END
>  <TORSDO>  (108) 
F 17

>  <SCORE>  (108) 
-13.967

>  <name>  (108) 
107

>  <ligand_id>  (108) 
107

>  <original_smiles>  (108) 
[H]OC1([H])C([H])([H])N(C(=O)C([H])(N([H])C(=O)O[N+]([H])=C(N([H])C(=O)C([H])([H])N([H])C(=O)c2nc([H])oc2C(=O)C([H])([H])C2([H])N=C(c3c([H])c([H])c(Cl)c([H])c3[H])c3c(sc(C([H])([H])[H])c3C([H])([H])[H])-n3c(C([H])([H])[H])nnc32)C([H])([H])[H])C(C([H])([H])[H])(C([H])([H])[H])C([H])([H])[H])C([H])(C(=O)N([H])C([H])([H])c2c([H])c([H])c(C3=C(C([H])([H])[H])N([H])C([H])([H])S3)c([H])c2[H])C1([H])[H]

>  <smiles>  (108) 
[H]OC1([H])C([H])([H])N(C(=O)C([H])(N([H])C(=O)O[N+]([H])=C(N([H])C(=O)C([H])([H])N([H])C(=O)c2nc([H])oc2C(=O)C([H])([H])C2([H])N=C(c3c([H])c([H])c(Cl)c([H])c3[H])c3c(sc(C([H])([H])[H])c3C([H])([H])[H])-n3c(C([H])([H])[H])nnc32)C([H])([H])[H])C(C([H])([H])[H])(C([H])([H])[H])C([H])([H])[H])C([H])(C(=O)N([H])C([H])([H])c2c([H])c([H])c(C3=C(C([H])([H])[H])N([H])C([H])([H])S3)c([H])c2[H])C1([H])[H]

$$$$
108:0:0
     RDKit          3D

 71 77  0  0  1  0  0  0  0  0999 V2000
   25.8790  -24.6590  -15.4350 N   0  0  0  0  0  0  0  0  0  0  0  0
   26.8110  -25.1560  -14.5670 C   0  0  0  0  0  0  0  0  0  0  0  0
   27.2790  -24.5450  -13.6000 O   0  0  0  0  0  0  0  0  0  0  0  0
   25.5890  -25.3060  -16.1500 H   0  0  0  0  0  0  0  0  0  0  0  0
   27.0470  -26.4860  -14.8490 O   0  0  0  0  0  0  0  0  0  0  0  0
   26.6260  -27.1600  -16.0650 C   0  0  0  0  0  3  0  0  0  0  0  0
   25.1060  -27.5300  -16.2280 C   0  0  0  0  0  3  0  0  0  0  0  0
   25.7010  -27.8360  -18.7310 C   0  0  0  0  0  1  0  0  0  0  0  0
   24.5860  -27.8750  -17.6650 C   0  0  0  0  0  3  0  0  0  0  0  0
   23.7620  -29.1970  -17.7940 C   0  0  0  0  0  2  0  0  0  0  0  0
   22.2780  -29.1860  -17.3240 C   0  0  0  0  0  2  0  0  0  0  0  0
   20.6710  -31.1200  -17.0130 C   0  0  0  0  0  0  0  0  0  0  0  0
   20.0270  -30.6120  -16.0920 O   0  0  0  0  0  0  0  0  0  0  0  0
   21.6060  -30.4420  -17.7090 N   0  0  0  0  0  0  0  0  0  0  0  0
   22.0570  -30.9650  -18.4490 H   0  0  0  0  0  0  0  0  0  0  0  0
   20.6140  -32.6400  -17.2520 C   0  0  0  0  0  2  0  0  0  0  0  0
   21.1800  -33.4100  -16.0250 C   0  0  0  0  0  3  0  0  0  0  0  0
   22.5250  -32.9130  -15.7260 N   0  0  0  0  0  0  0  0  0  0  0  0
   21.2240  -34.9220  -16.1740 C   0  0  0  0  0  0  0  0  0  0  0  0
   20.9870  -35.6270  -17.2870 N   0  0  0  0  0  0  0  0  0  0  0  0
   21.2440  -36.9440  -16.9570 N   0  0  0  0  0  0  0  0  0  0  0  0
   21.6270  -36.9310  -15.6770 C   0  0  0  0  0  0  0  0  0  0  0  0
   22.0620  -38.1580  -14.9350 C   0  0  0  0  0  1  0  0  0  0  0  0
   21.6070  -35.6920  -15.1360 N   0  0  0  0  0  0  0  0  0  0  0  0
   21.8950  -35.2570  -13.8280 C   0  0  0  0  0  0  0  0  0  0  0  0
   21.4330  -36.0760  -12.3700 S   0  0  0  0  0  0  0  0  0  0  0  0
   22.0700  -34.7840  -11.3900 C   0  0  0  0  0  0  0  0  0  0  0  0
   21.9840  -34.8720   -9.8990 C   0  0  0  0  0  1  0  0  0  0  0  0
   22.5940  -33.7650  -12.1540 C   0  0  0  0  0  0  0  0  0  0  0  0
   23.1460  -32.4990  -11.5480 C   0  0  0  0  0  1  0  0  0  0  0  0
   22.5300  -34.0620  -13.5610 C   0  0  0  0  0  0  0  0  0  0  0  0
   23.1060  -33.1700  -14.6180 C   0  0  0  0  0  0  0  0  0  0  0  0
   24.4380  -32.5680  -14.3950 C   0  0  0  0  0  0  0  0  0  0  0  0
   25.4800  -33.3410  -13.8340 C   0  0  0  0  0  3  0  0  0  0  0  0
   26.7420  -32.7620  -13.6010 C   0  0  0  0  0  3  0  0  0  0  0  0
   26.9660  -31.4120  -13.9240 C   0  0  0  0  0  0  0  0  0  0  0  0
   28.5070  -30.6980  -13.6350 Cl  0  0  0  0  0  0  0  0  0  0  0  0
   25.9330  -30.6410  -14.4850 C   0  0  0  0  0  3  0  0  0  0  0  0
   24.6700  -31.2140  -14.7210 C   0  0  0  0  0  3  0  0  0  0  0  0
   24.9580  -23.5580  -15.2110 C   0  0  0  0  0  3  0  0  0  0  0  0
   21.8630  -23.9150  -12.7990 C   0  0  0  0  0  3  0  0  0  0  0  0
   21.4050  -22.7110  -11.9630 C   0  0  0  0  0  2  0  0  0  0  0  0
   22.6680  -21.9050  -11.7390 C   0  0  0  0  0  3  0  0  0  0  0  0
   23.5340  -22.1770  -12.9690 C   0  0  0  0  0  2  0  0  0  0  0  0
   23.0570  -23.4430  -13.5330 N   0  0  0  0  0  0  0  0  0  0  0  0
   23.6990  -24.1490  -14.4960 C   0  0  0  0  0  0  0  0  0  0  0  0
   23.3310  -25.2900  -14.7920 O   0  0  0  0  0  0  0  0  0  0  0  0
   19.9110  -25.3450  -13.1150 N   0  0  0  0  0  0  0  0  0  0  0  0
   20.6940  -24.4120  -13.6670 C   0  0  0  0  0  0  0  0  0  0  0  0
   20.4770  -23.9210  -14.7760 O   0  0  0  0  0  0  0  0  0  0  0  0
   20.1740  -25.7100  -12.2110 H   0  0  0  0  0  0  0  0  0  0  0  0
   18.6450  -25.8120  -13.6660 C   0  0  0  0  0  2  0  0  0  0  0  0
   15.2830  -23.2460  -12.6370 C   0  0  0  0  0  0  0  0  0  0  0  0
   16.3280  -23.4480  -11.7130 C   0  0  0  0  0  3  0  0  0  0  0  0
   17.4170  -24.2740  -12.0420 C   0  0  0  0  0  3  0  0  0  0  0  0
   15.3400  -23.8760  -13.8990 C   0  0  0  0  0  3  0  0  0  0  0  0
   16.4310  -24.7020  -14.2280 C   0  0  0  0  0  3  0  0  0  0  0  0
   17.4750  -24.9070  -13.3030 C   0  0  0  0  0  0  0  0  0  0  0  0
   12.1540  -23.7630  -13.2270 C   0  0  0  0  0  1  0  0  0  0  0  0
   12.8100  -22.6120  -12.4910 C   0  0  0  0  0  0  0  0  0  0  0  0
   11.9930  -21.6540  -11.9280 N   0  0  0  0  0  0  0  0  0  0  0  0
   12.6330  -20.6900  -11.0390 C   0  0  0  0  0  2  0  0  0  0  0  0
   14.4000  -20.9490  -11.3540 S   0  0  0  0  0  0  0  0  0  0  0  0
   14.1150  -22.4400  -12.2390 C   0  0  0  0  0  0  0  0  0  0  0  0
   10.9790  -21.7120  -11.9400 H   0  0  0  0  0  0  0  0  0  0  0  0
   23.3470  -22.3650  -10.5820 O   0  0  0  0  0  0  0  0  0  0  0  0
   23.5600  -23.2870  -10.7000 H   0  0  0  0  0  0  0  0  0  0  0  0
   24.6590  -22.9400  -16.6240 C   0  0  1  0  0  0  0  0  0  0  0  0
   25.9410  -22.2450  -17.1390 C   0  0  0  0  0  1  0  0  0  0  0  0
   24.2320  -23.9920  -17.6810 C   0  0  0  0  0  1  0  0  0  0  0  0
   23.5590  -21.8640  -16.5510 C   0  0  0  0  0  1  0  0  0  0  0  0
  1 40  1  0
  1  2  1  0
  2  3  2  0
  4  1  1  0
  5  2  1  0
  6  5  1  0
  7  6  2  0
  9  8  1  0
  9  7  1  0
 10  9  1  0
 10 11  1  0
 12 13  2  0
 14 11  1  0
 14 12  1  0
 15 14  1  0
 16 12  1  0
 17 16  1  0
 17 18  1  0
 18 32  2  0
 19 17  1  0
 19 24  1  0
 20 21  1  0
 20 19  2  0
 21 22  2  0
 22 24  1  0
 22 23  1  0
 24 25  1  0
 25 31  2  0
 25 26  1  0
 26 27  1  0
 27 28  1  0
 29 30  1  0
 29 27  2  0
 31 29  1  0
 32 33  1  0
 32 31  1  0
 33 34  1  0
 34 35  2  0
 36 37  1  0
 36 35  1  0
 38 36  2  0
 39 38  1  0
 39 33  2  0
 40 46  1  0
 41 49  1  0
 41 42  1  0
 42 43  1  0
 43 66  1  0
 44 43  1  0
 45 44  1  0
 45 41  1  0
 46 45  1  0
 47 46  2  0
 48 51  1  0
 49 48  1  0
 50 49  2  0
 52 58  1  0
 52 48  1  0
 53 64  1  0
 53 54  1  0
 55 54  2  0
 56 53  2  0
 57 56  1  0
 57 58  2  0
 58 55  1  0
 59 60  1  0
 60 64  2  0
 60 61  1  0
 61 62  1  0
 63 62  1  0
 64 63  1  0
 65 61  1  0
 67 66  1  0
 68 71  1  1
 68 40  1  0
 69 68  1  0
 70 68  1  0
M  ISO  4   2 101   5 101  12 100  14 100
M  END
>  <TORSDO>  (109) 
F 18

>  <SCORE>  (109) 
-12.620

>  <name>  (109) 
108

>  <ligand_id>  (109) 
108

>  <original_smiles>  (109) 
[H]OC1([H])C([H])([H])N(C(=O)C([H])(N([H])C(=O)OC([H])([H])C([H])([H])C([H])(C([H])([H])[H])C([H])([H])C([H])([H])N([H])C(=O)C([H])([H])C2([H])N=C(c3c([H])c([H])c(Cl)c([H])c3[H])c3c(sc(C([H])([H])[H])c3C([H])([H])[H])-n3c(C([H])([H])[H])nnc32)C(C([H])([H])[H])(C([H])([H])[H])C([H])([H])[H])C([H])(C(=O)N([H])C([H])([H])c2c([H])c([H])c(C3=C(C([H])([H])[H])N([H])C([H])([H])S3)c([H])c2[H])C1([H])[H]

>  <smiles>  (109) 
[H]OC1([H])C([H])([H])N(C(=O)C([H])(N([H])C(=O)OC([H])([H])C([H])([H])C([H])(C([H])([H])[H])C([H])([H])C([H])([H])N([H])C(=O)C([H])([H])C2([H])N=C(c3c([H])c([H])c(Cl)c([H])c3[H])c3c(sc(C([H])([H])[H])c3C([H])([H])[H])-n3c(C([H])([H])[H])nnc32)C(C([H])([H])[H])(C([H])([H])[H])C([H])([H])[H])C([H])(C(=O)N([H])C([H])([H])c2c([H])c([H])c(C3=C(C([H])([H])[H])N([H])C([H])([H])S3)c([H])c2[H])C1([H])[H]

$$$$
109:0:0
     RDKit          3D

 80 86  0  0  1  0  0  0  0  0999 V2000
   25.9210  -24.6840  -15.5810 N   0  0  0  0  0  0  0  0  0  0  0  0
   26.8750  -25.2550  -14.8560 C   0  0  0  0  0  0  0  0  0  0  0  0
   27.3320  -24.8040  -13.7950 O   0  0  0  0  0  0  0  0  0  0  0  0
   27.3010  -26.8090  -16.6760 C   0  0  0  0  0  0  0  0  0  0  0  0
   28.2550  -26.1480  -17.3530 N   0  0  0  0  0  4  0  0  0  0  0  0
   27.1180  -26.5800  -15.3490 N   0  0  0  0  0  0  0  0  0  0  0  0
   26.5620  -27.6840  -17.4090 N   0  0  0  0  0  0  0  0  0  0  0  0
   25.6100  -25.1840  -16.3990 H   0  0  0  0  0  0  0  0  0  0  0  0
   28.9150  -25.5390  -16.8880 H   0  0  0  0  0  0  0  0  0  0  0  0
   28.4170  -26.3010  -18.3380 H   0  0  0  0  0  0  0  0  0  0  0  0
   27.5500  -27.2770  -14.7640 H   0  0  0  0  0  0  0  0  0  0  0  0
   26.7410  -27.7990  -18.4000 H   0  0  0  0  0  0  0  0  0  0  0  0
   24.4390  -28.4360  -17.9900 C   0  0  0  0  0  0  0  0  0  0  0  0
   25.3670  -28.3090  -17.0110 N   0  0  0  0  0  0  0  0  0  0  0  0
   24.5160  -27.7650  -19.0240 O   0  0  0  0  0  0  0  0  0  0  0  0
   25.4800  -28.8430  -16.1620 H   0  0  0  0  0  0  0  0  0  0  0  0
   23.2880  -29.4650  -17.8180 C   0  0  0  0  0  2  0  0  0  0  0  0
   21.9190  -29.1810  -18.5340 C   0  0  0  0  0  3  0  0  0  0  0  0
   20.6120  -30.5160  -16.8300 C   0  0  0  0  0  0  0  0  0  0  0  0
   20.2370  -30.2680  -15.6860 O   0  0  0  0  0  0  0  0  0  0  0  0
   20.7690  -29.4830  -17.6850 N   0  0  0  0  0  0  0  0  0  0  0  0
   20.1520  -28.6930  -17.5450 H   0  0  0  0  0  0  0  0  0  0  0  0
   20.8170  -31.9980  -17.2390 C   0  0  0  0  0  2  0  0  0  0  0  0
   21.2650  -32.9030  -16.0590 C   0  0  0  0  0  3  0  0  0  0  0  0
   22.6380  -32.5360  -15.7210 N   0  0  0  0  0  0  0  0  0  0  0  0
   21.1830  -34.4040  -16.3160 C   0  0  0  0  0  0  0  0  0  0  0  0
   20.8630  -35.0060  -17.4690 N   0  0  0  0  0  0  0  0  0  0  0  0
   21.0080  -36.3620  -17.2410 N   0  0  0  0  0  0  0  0  0  0  0  0
   21.4090  -36.4770  -15.9710 C   0  0  0  0  0  0  0  0  0  0  0  0
   21.7490  -37.7880  -15.3280 C   0  0  0  0  0  1  0  0  0  0  0  0
   21.5020  -35.2840  -15.3420 N   0  0  0  0  0  0  0  0  0  0  0  0
   21.8340  -34.9770  -14.0070 C   0  0  0  0  0  0  0  0  0  0  0  0
   21.3240  -35.8700  -12.6100 S   0  0  0  0  0  0  0  0  0  0  0  0
   22.0740  -34.7160  -11.5430 C   0  0  0  0  0  0  0  0  0  0  0  0
   21.9930  -34.9190  -10.0640 C   0  0  0  0  0  1  0  0  0  0  0  0
   22.6700  -33.6830  -12.2330 C   0  0  0  0  0  0  0  0  0  0  0  0
   23.3280  -32.5170  -11.5400 C   0  0  0  0  0  1  0  0  0  0  0  0
   22.5650  -33.8620  -13.6580 C   0  0  0  0  0  0  0  0  0  0  0  0
   23.2000  -32.9380  -14.6480 C   0  0  0  0  0  0  0  0  0  0  0  0
   24.5800  -32.4720  -14.3980 C   0  0  0  0  0  0  0  0  0  0  0  0
   25.5620  -33.3750  -13.9410 C   0  0  0  0  0  3  0  0  0  0  0  0
   26.8710  -32.9220  -13.6870 C   0  0  0  0  0  3  0  0  0  0  0  0
   27.2020  -31.5710  -13.8980 C   0  0  0  0  0  0  0  0  0  0  0  0
   28.7990  -31.0060  -13.5900 Cl  0  0  0  0  0  0  0  0  0  0  0  0
   26.2220  -30.6690  -14.3420 C   0  0  0  0  0  3  0  0  0  0  0  0
   24.9110  -31.1150  -14.5790 C   0  0  0  0  0  3  0  0  0  0  0  0
   22.2880  -29.1960  -20.8970 C   0  0  0  0  0  1  0  0  0  0  0  0
   21.7800  -29.8620  -19.7480 O   0  0  0  0  0  0  0  0  0  0  0  0
   25.0170  -23.6090  -15.2130 C   0  0  0  0  0  3  0  0  0  0  0  0
   21.9980  -24.0680  -12.7290 C   0  0  0  0  0  3  0  0  0  0  0  0
   21.5340  -22.8790  -11.8720 C   0  0  0  0  0  2  0  0  0  0  0  0
   22.7830  -22.0450  -11.6780 C   0  0  0  0  0  3  0  0  0  0  0  0
   23.6210  -22.2910  -12.9320 C   0  0  0  0  0  2  0  0  0  0  0  0
   23.1600  -23.5660  -13.4930 N   0  0  0  0  0  0  0  0  0  0  0  0
   23.7970  -24.2500  -14.4780 C   0  0  0  0  0  0  0  0  0  0  0  0
   23.4670  -25.4000  -14.7870 O   0  0  0  0  0  0  0  0  0  0  0  0
   20.0350  -25.4930  -12.9780 N   0  0  0  0  0  0  0  0  0  0  0  0
   20.8160  -24.5810  -13.5660 C   0  0  0  0  0  0  0  0  0  0  0  0
   20.5860  -24.1180  -14.6860 O   0  0  0  0  0  0  0  0  0  0  0  0
   20.3060  -25.8300  -12.0650 H   0  0  0  0  0  0  0  0  0  0  0  0
   18.7600  -25.9680  -13.4990 C   0  0  0  0  0  2  0  0  0  0  0  0
   15.4440  -23.2880  -12.6170 C   0  0  0  0  0  0  0  0  0  0  0  0
   16.4480  -23.5140  -11.6530 C   0  0  0  0  0  3  0  0  0  0  0  0
   17.5220  -24.3760  -11.9350 C   0  0  0  0  0  3  0  0  0  0  0  0
   15.5280  -23.9330  -13.8700 C   0  0  0  0  0  3  0  0  0  0  0  0
   16.6040  -24.7950  -14.1520 C   0  0  0  0  0  3  0  0  0  0  0  0
   17.6070  -25.0230  -13.1880 C   0  0  0  0  0  0  0  0  0  0  0  0
   12.3460  -23.6270  -13.4560 C   0  0  0  0  0  1  0  0  0  0  0  0
   12.9990  -22.5400  -12.6230 C   0  0  0  0  0  0  0  0  0  0  0  0
   12.1860  -21.5670  -12.0790 N   0  0  0  0  0  0  0  0  0  0  0  0
   12.8020  -20.6760  -11.1030 C   0  0  0  0  0  2  0  0  0  0  0  0
   14.5740  -21.0070  -11.3000 S   0  0  0  0  0  0  0  0  0  0  0  0
   14.2880  -22.4450  -12.2700 C   0  0  0  0  0  0  0  0  0  0  0  0
   11.1750  -21.5740  -12.1690 H   0  0  0  0  0  0  0  0  0  0  0  0
   23.5050  -22.4960  -10.5430 O   0  0  0  0  0  0  0  0  0  0  0  0
   23.7280  -23.4130  -10.6710 H   0  0  0  0  0  0  0  0  0  0  0  0
   24.6370  -22.8900  -16.5590 C   0  0  1  0  0  0  0  0  0  0  0  0
   25.8740  -22.1180  -17.0760 C   0  0  0  0  0  1  0  0  0  0  0  0
   24.1850  -23.8680  -17.6740 C   0  0  0  0  0  1  0  0  0  0  0  0
   23.5130  -21.8540  -16.3530 C   0  0  0  0  0  1  0  0  0  0  0  0
  1 49  1  0
  1  2  1  0
  2  3  2  0
  4  6  1  0
  5  9  1  0
  5  4  2  0
  6  2  1  0
  6 11  1  0
  7 14  1  0
  7  4  1  0
  8  1  1  0
 10  5  1  0
 12  7  1  0
 13 17  1  0
 13 14  1  0
 14 16  1  0
 15 13  2  0
 18 17  1  0
 18 21  1  0
 19 20  2  0
 21 22  1  0
 21 19  1  0
 23 19  1  0
 24 23  1  0
 24 25  1  0
 25 39  2  0
 26 24  1  0
 26 31  1  0
 27 28  1  0
 27 26  2  0
 28 29  2  0
 29 31  1  0
 29 30  1  0
 31 32  1  0
 32 38  2  0
 32 33  1  0
 33 34  1  0
 34 35  1  0
 36 34  2  0
 36 37  1  0
 38 36  1  0
 39 40  1  0
 39 38  1  0
 40 41  1  0
 41 42  2  0
 43 42  1  0
 43 44  1  0
 45 43  2  0
 46 40  2  0
 46 45  1  0
 47 48  1  0
 48 18  1  0
 49 55  1  0
 50 58  1  0
 50 51  1  0
 51 52  1  0
 52 75  1  0
 53 52  1  0
 54 53  1  0
 54 50  1  0
 55 54  1  0
 56 55  2  0
 57 60  1  0
 58 57  1  0
 59 58  2  0
 61 67  1  0
 61 57  1  0
 62 73  1  0
 62 63  1  0
 64 63  2  0
 65 62  2  0
 66 65  1  0
 66 67  2  0
 67 64  1  0
 68 69  1  0
 69 73  2  0
 69 70  1  0
 70 71  1  0
 72 71  1  0
 73 72  1  0
 74 70  1  0
 76 75  1  0
 77 80  1  1
 77 49  1  0
 78 77  1  0
 79 77  1  0
M  ISO  4   2 101   6 101  19 100  21 100
M  END
>  <TORSDO>  (110) 
F 16

>  <SCORE>  (110) 
-13.299

>  <name>  (110) 
109

>  <ligand_id>  (110) 
109

>  <original_smiles>  (110) 
[H]OC1([H])C([H])([H])N(C(=O)C([H])(N([H])C(=O)N([H])C(N([H])[H])=[N+]([H])N([H])C(=O)C([H])([H])C([H])(OC([H])([H])[H])N([H])C(=O)C([H])([H])C2([H])N=C(c3c([H])c([H])c(Cl)c([H])c3[H])c3c(sc(C([H])([H])[H])c3C([H])([H])[H])-n3c(C([H])([H])[H])nnc32)C(C([H])([H])[H])(C([H])([H])[H])C([H])([H])[H])C([H])(C(=O)N([H])C([H])([H])c2c([H])c([H])c(C3=C(C([H])([H])[H])N([H])C([H])([H])S3)c([H])c2[H])C1([H])[H]

>  <smiles>  (110) 
[H]OC1([H])C([H])([H])N(C(=O)C([H])(N([H])C(=O)N([H])C(N([H])[H])=[N+]([H])N([H])C(=O)C([H])([H])C([H])(OC([H])([H])[H])N([H])C(=O)C([H])([H])C2([H])N=C(c3c([H])c([H])c(Cl)c([H])c3[H])c3c(sc(C([H])([H])[H])c3C([H])([H])[H])-n3c(C([H])([H])[H])nnc32)C(C([H])([H])[H])(C([H])([H])[H])C([H])([H])[H])C([H])(C(=O)N([H])C([H])([H])c2c([H])c([H])c(C3=C(C([H])([H])[H])N([H])C([H])([H])S3)c([H])c2[H])C1([H])[H]

$$$$
110:0:0
     RDKit          3D

 78 84  0  0  1  0  0  0  0  0999 V2000
   24.4290  -27.0460  -15.8750 C   0  0  0  0  0  3  0  0  0  0  0  0
   24.0670  -28.5640  -17.7230 C   0  0  0  0  0  3  0  0  0  0  0  0
   22.9350  -26.8180  -15.7550 C   0  0  0  0  0  1  0  0  0  0  0  0
   25.4900  -28.2390  -19.8100 C   0  0  0  0  0  1  0  0  0  0  0  0
   24.8570  -27.7190  -16.9740 N   0  0  0  0  0  0  0  0  0  0  0  0
   24.3880  -28.8150  -19.0150 N   0  0  0  0  0  0  0  0  0  0  0  0
   25.1750  -26.4780  -14.8650 N   0  0  0  0  0  0  0  0  0  0  0  0
   22.9650  -29.2090  -17.2110 N   0  0  0  0  0  0  0  0  0  0  0  0
   25.8090  -27.5700  -17.2680 H   0  0  0  0  0  0  0  0  0  0  0  0
   23.7570  -29.3820  -19.5590 H   0  0  0  0  0  0  0  0  0  0  0  0
   24.5710  -26.0790  -14.1310 H   0  0  0  0  0  0  0  0  0  0  0  0
   22.7180  -29.1590  -16.2310 H   0  0  0  0  0  0  0  0  0  0  0  0
   25.7140  -24.0150  -15.4320 N   0  0  0  0  0  0  0  0  0  0  0  0
   26.5650  -24.5930  -14.5970 C   0  0  0  0  0  0  0  0  0  0  0  0
   27.1690  -23.9390  -13.7280 O   0  0  0  0  0  0  0  0  0  0  0  0
   26.5300  -25.9580  -14.7770 N   0  0  0  0  0  0  0  0  0  0  0  0
   25.5020  -24.5580  -16.2530 H   0  0  0  0  0  0  0  0  0  0  0  0
   27.0340  -26.5420  -14.1250 H   0  0  0  0  0  0  0  0  0  0  0  0
   24.6960  -23.0090  -15.1530 C   0  0  0  0  0  3  0  0  0  0  0  0
   21.6960  -23.5700  -12.6450 C   0  0  0  0  0  3  0  0  0  0  0  0
   21.1560  -22.4010  -11.8130 C   0  0  0  0  0  2  0  0  0  0  0  0
   22.3540  -21.4900  -11.6300 C   0  0  0  0  0  3  0  0  0  0  0  0
   23.2060  -21.6870  -12.8820 C   0  0  0  0  0  2  0  0  0  0  0  0
   22.8240  -22.9930  -13.4120 N   0  0  0  0  0  0  0  0  0  0  0  0
   23.5060  -23.6560  -14.3630 C   0  0  0  0  0  0  0  0  0  0  0  0
   23.2240  -24.8300  -14.5800 O   0  0  0  0  0  0  0  0  0  0  0  0
   19.8120  -25.1190  -12.8690 N   0  0  0  0  0  0  0  0  0  0  0  0
   20.5480  -24.1810  -13.4760 C   0  0  0  0  0  0  0  0  0  0  0  0
   20.3100  -23.7770  -14.6160 O   0  0  0  0  0  0  0  0  0  0  0  0
   20.0880  -25.4090  -11.9410 H   0  0  0  0  0  0  0  0  0  0  0  0
   18.5690  -25.6800  -13.3860 C   0  0  0  0  0  2  0  0  0  0  0  0
   15.1020  -23.1760  -12.5640 C   0  0  0  0  0  0  0  0  0  0  0  0
   16.1120  -23.3300  -11.5930 C   0  0  0  0  0  3  0  0  0  0  0  0
   17.2320  -24.1380  -11.8560 C   0  0  0  0  0  3  0  0  0  0  0  0
   15.2250  -23.8370  -13.8050 C   0  0  0  0  0  3  0  0  0  0  0  0
   16.3480  -24.6460  -14.0690 C   0  0  0  0  0  3  0  0  0  0  0  0
   17.3590  -24.8000  -13.0970 C   0  0  0  0  0  0  0  0  0  0  0  0
   12.0320  -23.6880  -13.4150 C   0  0  0  0  0  1  0  0  0  0  0  0
   12.6210  -22.5580  -12.5950 C   0  0  0  0  0  0  0  0  0  0  0  0
   11.7560  -21.6220  -12.0670 N   0  0  0  0  0  0  0  0  0  0  0  0
   12.3170  -20.6860  -11.1000 C   0  0  0  0  0  2  0  0  0  0  0  0
   14.1050  -20.9270  -11.2820 S   0  0  0  0  0  0  0  0  0  0  0  0
   13.9020  -22.3890  -12.2340 C   0  0  0  0  0  0  0  0  0  0  0  0
   10.7460  -21.6840  -12.1600 H   0  0  0  0  0  0  0  0  0  0  0  0
   23.1070  -21.8980  -10.4990 O   0  0  0  0  0  0  0  0  0  0  0  0
   23.3790  -22.8010  -10.6260 H   0  0  0  0  0  0  0  0  0  0  0  0
   24.3090  -22.4460  -16.5670 C   0  0  1  0  0  0  0  0  0  0  0  0
   25.5320  -21.7080  -17.1620 C   0  0  0  0  0  1  0  0  0  0  0  0
   23.8780  -23.5370  -17.5800 C   0  0  0  0  0  1  0  0  0  0  0  0
   23.1590  -21.4260  -16.4780 C   0  0  0  0  0  1  0  0  0  0  0  0
   21.1610  -30.6850  -17.2250 C   0  0  0  0  0  0  0  0  0  0  0  0
   20.5460  -30.1650  -16.2840 O   0  0  0  0  0  0  0  0  0  0  0  0
   22.1130  -30.0560  -17.9520 N   0  0  0  0  0  0  0  0  0  0  0  0
   22.6850  -30.5850  -18.5930 H   0  0  0  0  0  0  0  0  0  0  0  0
   21.0860  -32.1920  -17.4630 C   0  0  0  0  0  2  0  0  0  0  0  0
   21.5770  -32.9650  -16.2100 C   0  0  0  0  0  3  0  0  0  0  0  0
   22.9740  -32.6140  -15.9130 N   0  0  0  0  0  0  0  0  0  0  0  0
   21.4450  -34.4720  -16.3150 C   0  0  0  0  0  0  0  0  0  0  0  0
   21.1370  -35.1720  -17.4150 N   0  0  0  0  0  0  0  0  0  0  0  0
   21.2340  -36.5000  -17.0480 N   0  0  0  0  0  0  0  0  0  0  0  0
   21.6050  -36.4980  -15.7630 C   0  0  0  0  0  0  0  0  0  0  0  0
   21.8840  -37.7460  -14.9850 C   0  0  0  0  0  1  0  0  0  0  0  0
   21.7270  -35.2520  -15.2550 N   0  0  0  0  0  0  0  0  0  0  0  0
   22.0580  -34.8150  -13.9570 C   0  0  0  0  0  0  0  0  0  0  0  0
   21.4900  -35.5320  -12.4840 S   0  0  0  0  0  0  0  0  0  0  0  0
   22.2680  -34.2980  -11.5320 C   0  0  0  0  0  0  0  0  0  0  0  0
   22.1530  -34.3400  -10.0420 C   0  0  0  0  0  1  0  0  0  0  0  0
   22.9160  -33.3680  -12.3160 C   0  0  0  0  0  0  0  0  0  0  0  0
   23.6100  -32.1620  -11.7350 C   0  0  0  0  0  1  0  0  0  0  0  0
   22.8270  -33.6970  -13.7170 C   0  0  0  0  0  0  0  0  0  0  0  0
   23.5120  -32.9110  -14.7910 C   0  0  0  0  0  0  0  0  0  0  0  0
   24.9050  -32.4680  -14.5650 C   0  0  0  0  0  0  0  0  0  0  0  0
   25.8560  -33.3660  -14.0350 C   0  0  0  0  0  3  0  0  0  0  0  0
   27.1750  -32.9370  -13.7960 C   0  0  0  0  0  3  0  0  0  0  0  0
   27.5510  -31.6140  -14.0910 C   0  0  0  0  0  0  0  0  0  0  0  0
   29.1640  -31.0840  -13.8000 Cl  0  0  0  0  0  0  0  0  0  0  0  0
   26.6040  -30.7140  -14.6110 C   0  0  0  0  0  3  0  0  0  0  0  0
   25.2830  -31.1390  -14.8460 C   0  0  0  0  0  3  0  0  0  0  0  0
  1  3  1  0
  1  7  1  0
  2  6  1  0
  2  8  1  0
  2  5  1  0
  4  6  1  0
  5  1  1  0
  7 16  1  0
  7 11  1  0
  8 12  1  0
  9  5  1  0
 10  6  1  0
 13 19  1  0
 13 14  1  0
 14 15  2  0
 16 14  1  0
 16 18  1  0
 17 13  1  0
 19 25  1  0
 20 28  1  0
 20 21  1  0
 21 22  1  0
 22 45  1  0
 23 22  1  0
 24 23  1  0
 24 20  1  0
 25 24  1  0
 26 25  2  0
 27 30  1  0
 28 27  1  0
 29 28  2  0
 31 37  1  0
 31 27  1  0
 32 43  1  0
 32 33  1  0
 34 33  2  0
 35 32  2  0
 36 35  1  0
 36 37  2  0
 37 34  1  0
 38 39  1  0
 39 43  2  0
 39 40  1  0
 40 41  1  0
 42 41  1  0
 43 42  1  0
 44 40  1  0
 46 45  1  0
 47 50  1  1
 47 19  1  0
 48 47  1  0
 49 47  1  0
 51 52  2  0
 53 51  1  0
 53  8  1  0
 54 53  1  0
 55 51  1  0
 56 55  1  0
 56 57  1  0
 57 71  2  0
 58 56  1  0
 58 63  1  0
 59 60  1  0
 59 58  2  0
 60 61  2  0
 61 63  1  0
 61 62  1  0
 63 64  1  0
 64 70  2  0
 64 65  1  0
 65 66  1  0
 66 67  1  0
 68 69  1  0
 68 66  2  0
 70 68  1  0
 71 72  1  0
 71 70  1  0
 72 73  1  0
 73 74  2  0
 75 76  1  0
 75 74  1  0
 77 75  2  0
 78 77  1  0
 78 72  2  0
M  ISO  4  14 101  16 101  51 100  53 100
M  END
>  <TORSDO>  (111) 
F 13

>  <SCORE>  (111) 
-13.020

>  <name>  (111) 
110

>  <ligand_id>  (111) 
110

>  <original_smiles>  (111) 
[H]OC1([H])C([H])([H])N(C(=O)C([H])(N([H])C(=O)N([H])[N+]([H])=C(N([H])C(N([H])C([H])([H])[H])=[N+]([H])N([H])C(=O)C([H])([H])C2([H])N=C(c3c([H])c([H])c(Cl)c([H])c3[H])c3c(sc(C([H])([H])[H])c3C([H])([H])[H])-n3c(C([H])([H])[H])nnc32)C([H])([H])[H])C(C([H])([H])[H])(C([H])([H])[H])C([H])([H])[H])C([H])(C(=O)N([H])C([H])([H])c2c([H])c([H])c(C3=C(C([H])([H])[H])N([H])C([H])([H])S3)c([H])c2[H])C1([H])[H]

>  <smiles>  (111) 
[H]OC1([H])C([H])([H])N(C(=O)C([H])(N([H])C(=O)N([H])[N+]([H])=C(N([H])C(N([H])C([H])([H])[H])=[N+]([H])N([H])C(=O)C([H])([H])C2([H])N=C(c3c([H])c([H])c(Cl)c([H])c3[H])c3c(sc(C([H])([H])[H])c3C([H])([H])[H])-n3c(C([H])([H])[H])nnc32)C([H])([H])[H])C(C([H])([H])[H])(C([H])([H])[H])C([H])([H])[H])C([H])(C(=O)N([H])C([H])([H])c2c([H])c([H])c(C3=C(C([H])([H])[H])N([H])C([H])([H])S3)c([H])c2[H])C1([H])[H]

$$$$
111:0:0
     RDKit          3D

 81 87  0  0  1  0  0  0  0  0999 V2000
   26.4880  -27.5480  -16.8870 C   0  0  0  0  0  0  0  0  0  0  0  0
   25.2900  -27.7710  -16.4560 N   0  0  0  0  0  0  0  0  0  0  0  0
   27.4130  -26.6800  -16.3180 N   0  0  0  0  0  0  0  0  0  0  0  0
   28.2840  -26.5870  -16.8400 H   0  0  0  0  0  0  0  0  0  0  0  0
   25.9070  -24.6390  -15.3730 N   0  0  0  0  0  0  0  0  0  0  0  0
   26.8940  -25.0470  -14.5810 C   0  0  0  0  0  0  0  0  0  0  0  0
   27.2540  -24.4400  -13.5700 O   0  0  0  0  0  0  0  0  0  0  0  0
   27.4340  -26.2080  -14.9790 N   0  0  0  0  0  0  0  0  0  0  0  0
   25.6820  -25.2740  -16.1240 H   0  0  0  0  0  0  0  0  0  0  0  0
   28.1490  -26.6350  -14.4030 H   0  0  0  0  0  0  0  0  0  0  0  0
   24.9600  -23.5510  -15.1410 C   0  0  0  0  0  3  0  0  0  0  0  0
   21.8720  -23.9280  -12.7290 C   0  0  0  0  0  3  0  0  0  0  0  0
   21.4090  -22.7270  -11.8880 C   0  0  0  0  0  2  0  0  0  0  0  0
   22.6680  -21.9160  -11.6650 C   0  0  0  0  0  3  0  0  0  0  0  0
   23.5320  -22.1840  -12.8980 C   0  0  0  0  0  2  0  0  0  0  0  0
   23.0620  -23.4540  -13.4670 N   0  0  0  0  0  0  0  0  0  0  0  0
   23.7080  -24.1560  -14.4360 C   0  0  0  0  0  0  0  0  0  0  0  0
   23.3480  -25.2950  -14.7560 O   0  0  0  0  0  0  0  0  0  0  0  0
   19.9120  -25.3460  -13.0340 N   0  0  0  0  0  0  0  0  0  0  0  0
   20.7000  -24.4210  -13.5930 C   0  0  0  0  0  0  0  0  0  0  0  0
   20.4850  -23.9350  -14.7050 O   0  0  0  0  0  0  0  0  0  0  0  0
   20.1720  -25.7040  -12.1250 H   0  0  0  0  0  0  0  0  0  0  0  0
   18.6450  -25.8120  -13.5830 C   0  0  0  0  0  2  0  0  0  0  0  0
   15.3030  -23.1920  -12.6270 C   0  0  0  0  0  0  0  0  0  0  0  0
   16.3430  -23.3820  -11.6940 C   0  0  0  0  0  3  0  0  0  0  0  0
   17.4260  -24.2240  -12.0000 C   0  0  0  0  0  3  0  0  0  0  0  0
   15.3590  -23.8510  -13.8730 C   0  0  0  0  0  3  0  0  0  0  0  0
   16.4440  -24.6940  -14.1800 C   0  0  0  0  0  3  0  0  0  0  0  0
   17.4830  -24.8870  -13.2460 C   0  0  0  0  0  0  0  0  0  0  0  0
   12.1690  -23.7010  -13.2070 C   0  0  0  0  0  1  0  0  0  0  0  0
   12.8350  -22.5360  -12.5020 C   0  0  0  0  0  0  0  0  0  0  0  0
   12.0230  -21.5570  -11.9650 N   0  0  0  0  0  0  0  0  0  0  0  0
   12.6700  -20.5760  -11.1010 C   0  0  0  0  0  2  0  0  0  0  0  0
   14.4360  -20.8560  -11.4060 S   0  0  0  0  0  0  0  0  0  0  0  0
   14.1410  -22.3680  -12.2510 C   0  0  0  0  0  0  0  0  0  0  0  0
   11.0090  -21.6080  -11.9770 H   0  0  0  0  0  0  0  0  0  0  0  0
   23.3520  -22.3760  -10.5110 O   0  0  0  0  0  0  0  0  0  0  0  0
   23.5710  -23.2950  -10.6350 H   0  0  0  0  0  0  0  0  0  0  0  0
   24.6440  -22.8970  -16.5360 C   0  0  1  0  0  0  0  0  0  0  0  0
   25.9220  -22.1980  -17.0580 C   0  0  0  0  0  1  0  0  0  0  0  0
   24.1890  -23.9230  -17.6050 C   0  0  0  0  0  1  0  0  0  0  0  0
   23.5520  -21.8090  -16.4260 C   0  0  0  0  0  1  0  0  0  0  0  0
   26.9420  -28.1810  -18.0240 O   0  0  0  0  0  0  0  0  0  0  0  0
   28.1650  -27.6380  -18.5900 N   0  0  0  0  0  0  0  0  0  0  0  0
   27.9160  -27.3540  -19.5320 H   0  0  0  0  0  0  0  0  0  0  0  0
   28.7670  -28.4410  -18.7340 H   0  0  0  0  0  0  0  0  0  0  0  0
   24.4490  -28.6950  -17.2160 C   0  0  0  0  0  2  0  0  0  0  0  0
   20.7980  -31.3460  -16.9420 C   0  0  0  0  0  0  0  0  0  0  0  0
   19.9080  -30.9560  -16.1870 O   0  0  0  0  0  0  0  0  0  0  0  0
   21.9190  -29.1170  -16.9370 C   0  0  0  0  0  0  0  0  0  0  0  0
   20.8260  -28.4430  -16.5470 N   0  0  0  0  0  4  0  0  0  0  0  0
   21.8860  -30.4420  -17.2740 N   0  0  0  0  0  0  0  0  0  0  0  0
   23.0430  -28.3650  -16.9410 N   0  0  0  0  0  0  0  0  0  0  0  0
   19.9750  -28.9760  -16.3880 H   0  0  0  0  0  0  0  0  0  0  0  0
   20.8180  -27.4610  -16.3160 H   0  0  0  0  0  0  0  0  0  0  0  0
   22.7040  -30.7880  -17.7480 H   0  0  0  0  0  0  0  0  0  0  0  0
   22.9470  -27.4050  -16.6450 H   0  0  0  0  0  0  0  0  0  0  0  0
   20.9580  -32.8430  -17.2680 C   0  0  0  0  0  2  0  0  0  0  0  0
   21.3890  -33.6040  -15.9830 C   0  0  0  0  0  3  0  0  0  0  0  0
   22.7240  -33.1230  -15.6370 N   0  0  0  0  0  0  0  0  0  0  0  0
   21.3970  -35.1230  -16.0610 C   0  0  0  0  0  0  0  0  0  0  0  0
   21.1700  -35.8730  -17.1460 N   0  0  0  0  0  0  0  0  0  0  0  0
   21.3770  -37.1800  -16.7470 N   0  0  0  0  0  0  0  0  0  0  0  0
   21.7180  -37.1190  -15.4560 C   0  0  0  0  0  0  0  0  0  0  0  0
   22.0950  -38.3220  -14.6440 C   0  0  0  0  0  1  0  0  0  0  0  0
   21.7130  -35.8570  -14.9740 N   0  0  0  0  0  0  0  0  0  0  0  0
   21.9630  -35.3730  -13.6720 C   0  0  0  0  0  0  0  0  0  0  0  0
   21.4320  -36.1220  -12.1990 S   0  0  0  0  0  0  0  0  0  0  0  0
   22.0640  -34.8070  -11.2490 C   0  0  0  0  0  0  0  0  0  0  0  0
   21.9190  -34.8360   -9.7600 C   0  0  0  0  0  1  0  0  0  0  0  0
   22.6380  -33.8300  -12.0330 C   0  0  0  0  0  0  0  0  0  0  0  0
   23.1980  -32.5530  -11.4570 C   0  0  0  0  0  1  0  0  0  0  0  0
   22.6170  -34.1840  -13.4290 C   0  0  0  0  0  0  0  0  0  0  0  0
   23.2510  -33.3510  -14.4960 C   0  0  0  0  0  0  0  0  0  0  0  0
   24.5850  -32.7660  -14.2540 C   0  0  0  0  0  0  0  0  0  0  0  0
   25.6020  -33.5510  -13.6680 C   0  0  0  0  0  3  0  0  0  0  0  0
   26.8660  -32.9890  -13.4160 C   0  0  0  0  0  3  0  0  0  0  0  0
   27.1190  -31.6450  -13.7510 C   0  0  0  0  0  0  0  0  0  0  0  0
   28.6650  -30.9550  -13.4370 Cl  0  0  0  0  0  0  0  0  0  0  0  0
   26.1080  -30.8610  -14.3360 C   0  0  0  0  0  3  0  0  0  0  0  0
   24.8420  -31.4200  -14.5890 C   0  0  0  0  0  3  0  0  0  0  0  0
  1  2  2  0
  1  3  1  0
  3  8  1  0
  4  3  1  0
  5 11  1  0
  5  6  1  0
  6  7  2  0
  8  6  1  0
  8 10  1  0
  9  5  1  0
 11 17  1  0
 12 20  1  0
 12 13  1  0
 13 14  1  0
 14 37  1  0
 15 14  1  0
 16 15  1  0
 16 12  1  0
 17 16  1  0
 18 17  2  0
 19 22  1  0
 20 19  1  0
 21 20  2  0
 23 29  1  0
 23 19  1  0
 24 35  1  0
 24 25  1  0
 26 25  2  0
 27 24  2  0
 28 27  1  0
 28 29  2  0
 29 26  1  0
 30 31  1  0
 31 35  2  0
 31 32  1  0
 32 33  1  0
 34 33  1  0
 35 34  1  0
 36 32  1  0
 38 37  1  0
 39 42  1  1
 39 11  1  0
 40 39  1  0
 41 39  1  0
 43  1  1  0
 44 43  1  0
 45 44  1  0
 46 44  1  0
 47 53  1  0
 47  2  1  0
 48 49  2  0
 50 51  2  0
 51 54  1  0
 51 55  1  0
 52 48  1  0
 52 50  1  0
 53 50  1  0
 53 57  1  0
 56 52  1  0
 58 48  1  0
 59 58  1  0
 59 60  1  0
 60 74  2  0
 61 59  1  0
 61 66  1  0
 62 63  1  0
 62 61  2  0
 63 64  2  0
 64 66  1  0
 64 65  1  0
 66 67  1  0
 67 73  2  0
 67 68  1  0
 68 69  1  0
 69 70  1  0
 71 72  1  0
 71 69  2  0
 73 71  1  0
 74 75  1  0
 74 73  1  0
 75 76  1  0
 76 77  2  0
 78 79  1  0
 78 77  1  0
 80 78  2  0
 81 80  1  0
 81 75  2  0
M  ISO  4   6 101   8 101  48 100  52 100
M  END
>  <TORSDO>  (112) 
F 16

>  <SCORE>  (112) 
-14.199

>  <name>  (112) 
111

>  <ligand_id>  (112) 
111

>  <original_smiles>  (112) 
[H]OC1([H])C([H])([H])N(C(=O)C([H])(N([H])C(=O)N([H])N([H])C(=NC([H])([H])[N+]([H])=C(N([H])[H])N([H])C(=O)C([H])([H])C2([H])N=C(c3c([H])c([H])c(Cl)c([H])c3[H])c3c(sc(C([H])([H])[H])c3C([H])([H])[H])-n3c(C([H])([H])[H])nnc32)ON([H])[H])C(C([H])([H])[H])(C([H])([H])[H])C([H])([H])[H])C([H])(C(=O)N([H])C([H])([H])c2c([H])c([H])c(C3=C(C([H])([H])[H])N([H])C([H])([H])S3)c([H])c2[H])C1([H])[H]

>  <smiles>  (112) 
[H]OC1([H])C([H])([H])N(C(=O)C([H])(N([H])C(=O)N([H])N([H])C(=NC([H])([H])[N+]([H])=C(N([H])[H])N([H])C(=O)C([H])([H])C2([H])N=C(c3c([H])c([H])c(Cl)c([H])c3[H])c3c(sc(C([H])([H])[H])c3C([H])([H])[H])-n3c(C([H])([H])[H])nnc32)ON([H])[H])C(C([H])([H])[H])(C([H])([H])[H])C([H])([H])[H])C([H])(C(=O)N([H])C([H])([H])c2c([H])c([H])c(C3=C(C([H])([H])[H])N([H])C([H])([H])S3)c([H])c2[H])C1([H])[H]

$$$$
112:0:0
     RDKit          3D

 82 88  0  0  1  0  0  0  0  0999 V2000
   24.7640  -27.3670  -15.6330 C   0  0  0  0  0  3  0  0  0  0  0  0
   25.9460  -26.9570  -15.1180 N   0  0  0  0  0  0  0  0  0  0  0  0
   23.8710  -27.8490  -14.7300 N   0  0  0  0  0  0  0  0  0  0  0  0
   24.5360  -27.2810  -16.9730 N   0  0  0  0  0  0  0  0  0  0  0  0
   26.1160  -27.0400  -14.1210 H   0  0  0  0  0  0  0  0  0  0  0  0
   23.9550  -27.7700  -13.7190 H   0  0  0  0  0  0  0  0  0  0  0  0
   25.3590  -27.1420  -17.5440 H   0  0  0  0  0  0  0  0  0  0  0  0
   25.5910  -24.3970  -16.1700 N   0  0  0  0  0  0  0  0  0  0  0  0
   26.6860  -24.8560  -15.5590 C   0  0  0  0  0  0  0  0  0  0  0  0
   27.3580  -24.1990  -14.7590 O   0  0  0  0  0  0  0  0  0  0  0  0
   26.8730  -26.1580  -15.8210 N   0  0  0  0  0  0  0  0  0  0  0  0
   25.1580  -24.9970  -16.8520 H   0  0  0  0  0  0  0  0  0  0  0  0
   27.7610  -26.5630  -15.5460 H   0  0  0  0  0  0  0  0  0  0  0  0
   24.7240  -23.3140  -15.7190 C   0  0  0  0  0  3  0  0  0  0  0  0
   21.8490  -23.9200  -13.0850 C   0  0  0  0  0  3  0  0  0  0  0  0
   21.4120  -22.7840  -12.1490 C   0  0  0  0  0  2  0  0  0  0  0  0
   22.6590  -21.9340  -11.9870 C   0  0  0  0  0  3  0  0  0  0  0  0
   23.4300  -22.1020  -13.2990 C   0  0  0  0  0  2  0  0  0  0  0  0
   22.9530  -23.3570  -13.8930 N   0  0  0  0  0  0  0  0  0  0  0  0
   23.5430  -23.9810  -14.9430 C   0  0  0  0  0  0  0  0  0  0  0  0
   23.1970  -25.1180  -15.2800 O   0  0  0  0  0  0  0  0  0  0  0  0
   19.8960  -25.3750  -13.2740 N   0  0  0  0  0  0  0  0  0  0  0  0
   20.6270  -24.4260  -13.8700 C   0  0  0  0  0  0  0  0  0  0  0  0
   20.3310  -23.9310  -14.9590 O   0  0  0  0  0  0  0  0  0  0  0  0
   20.2150  -25.7370  -12.3840 H   0  0  0  0  0  0  0  0  0  0  0  0
   18.6040  -25.8560  -13.7450 C   0  0  0  0  0  2  0  0  0  0  0  0
   15.3110  -23.2260  -12.6510 C   0  0  0  0  0  0  0  0  0  0  0  0
   16.3850  -23.4280  -11.7590 C   0  0  0  0  0  3  0  0  0  0  0  0
   17.4500  -24.2740  -12.1110 C   0  0  0  0  0  3  0  0  0  0  0  0
   15.3200  -23.8740  -13.9040 C   0  0  0  0  0  3  0  0  0  0  0  0
   16.3880  -24.7200  -14.2580 C   0  0  0  0  0  3  0  0  0  0  0  0
   17.4590  -24.9260  -13.3630 C   0  0  0  0  0  0  0  0  0  0  0  0
   12.1590  -23.6610  -13.2080 C   0  0  0  0  0  1  0  0  0  0  0  0
   12.8550  -22.5350  -12.4660 C   0  0  0  0  0  0  0  0  0  0  0  0
   12.0670  -21.5640  -11.8810 N   0  0  0  0  0  0  0  0  0  0  0  0
   12.7400  -20.6270  -10.9890 C   0  0  0  0  0  2  0  0  0  0  0  0
   14.4980  -20.9270  -11.3270 S   0  0  0  0  0  0  0  0  0  0  0  0
   14.1670  -22.3990  -12.2290 C   0  0  0  0  0  0  0  0  0  0  0  0
   11.0520  -21.5970  -11.8840 H   0  0  0  0  0  0  0  0  0  0  0  0
   23.4520  -22.4200  -10.9160 O   0  0  0  0  0  0  0  0  0  0  0  0
   23.6750  -23.3290  -11.0920 H   0  0  0  0  0  0  0  0  0  0  0  0
   24.2620  -22.5220  -16.9970 C   0  0  1  0  0  0  0  0  0  0  0  0
   25.4570  -21.7120  -17.5570 C   0  0  0  0  0  1  0  0  0  0  0  0
   23.7450  -23.4310  -18.1380 C   0  0  0  0  0  1  0  0  0  0  0  0
   23.1520  -21.5050  -16.6610 C   0  0  0  0  0  1  0  0  0  0  0  0
   22.5350  -27.8060  -15.1060 O   0  0  0  0  0  0  0  0  0  0  0  0
   22.3430  -26.8720  -14.9980 H   0  0  0  0  0  0  0  0  0  0  0  0
   23.2690  -27.4270  -17.7570 C   0  0  0  0  0  2  0  0  0  0  0  0
   22.9080  -28.8980  -17.8590 C   0  0  0  0  0  0  0  0  0  0  0  0
   23.9120  -29.7880  -17.9500 N   0  0  0  0  0  4  0  0  0  0  0  0
   21.6010  -29.2860  -17.9200 N   0  0  0  0  0  0  0  0  0  0  0  0
   24.8670  -29.4640  -17.9610 H   0  0  0  0  0  0  0  0  0  0  0  0
   23.7570  -30.7830  -17.9760 H   0  0  0  0  0  0  0  0  0  0  0  0
   20.8620  -28.6050  -17.8140 H   0  0  0  0  0  0  0  0  0  0  0  0
   20.6600  -31.3850  -17.2500 C   0  0  0  0  0  0  0  0  0  0  0  0
   20.1680  -30.9260  -16.2160 O   0  0  0  0  0  0  0  0  0  0  0  0
   21.2210  -30.6180  -18.2100 N   0  0  0  0  0  0  0  0  0  0  0  0
   21.5920  -30.8940  -19.1100 H   0  0  0  0  0  0  0  0  0  0  0  0
   20.7850  -32.9130  -17.4220 C   0  0  0  0  0  2  0  0  0  0  0  0
   21.3100  -33.6000  -16.1260 C   0  0  0  0  0  3  0  0  0  0  0  0
   22.6450  -33.0720  -15.8190 N   0  0  0  0  0  0  0  0  0  0  0  0
   21.3660  -35.1200  -16.1790 C   0  0  0  0  0  0  0  0  0  0  0  0
   21.1470  -35.8940  -17.2520 N   0  0  0  0  0  0  0  0  0  0  0  0
   21.4030  -37.1860  -16.8400 N   0  0  0  0  0  0  0  0  0  0  0  0
   21.7640  -37.0960  -15.5560 C   0  0  0  0  0  0  0  0  0  0  0  0
   22.1840  -38.2760  -14.7340 C   0  0  0  0  0  1  0  0  0  0  0  0
   21.7290  -35.8320  -15.0930 N   0  0  0  0  0  0  0  0  0  0  0  0
   21.9880  -35.3210  -13.8040 C   0  0  0  0  0  0  0  0  0  0  0  0
   21.5000  -36.0610  -12.3120 S   0  0  0  0  0  0  0  0  0  0  0  0
   22.1150  -34.7170  -11.3940 C   0  0  0  0  0  0  0  0  0  0  0  0
   21.9970  -34.7300   -9.9070 C   0  0  0  0  0  1  0  0  0  0  0  0
   22.6510  -33.7380  -12.2030 C   0  0  0  0  0  0  0  0  0  0  0  0
   23.1960  -32.4410  -11.6630 C   0  0  0  0  0  1  0  0  0  0  0  0
   22.6120  -34.1130  -13.5930 C   0  0  0  0  0  0  0  0  0  0  0  0
   23.2040  -33.2790  -14.6860 C   0  0  0  0  0  0  0  0  0  0  0  0
   24.5340  -32.6730  -14.4680 C   0  0  0  0  0  0  0  0  0  0  0  0
   25.5700  -33.4220  -13.8700 C   0  0  0  0  0  3  0  0  0  0  0  0
   26.8250  -32.8290  -13.6450 C   0  0  0  0  0  3  0  0  0  0  0  0
   27.0590  -31.4990  -14.0420 C   0  0  0  0  0  0  0  0  0  0  0  0
   28.5990  -30.7690  -13.7780 Cl  0  0  0  0  0  0  0  0  0  0  0  0
   26.0390  -30.7640  -14.6670 C   0  0  0  0  0  3  0  0  0  0  0  0
   24.7670  -31.3380  -14.8500 C   0  0  0  0  0  3  0  0  0  0  0  0
  1  4  1  0
  1  2  1  0
  1  3  1  0
  2  5  1  0
  3  6  1  0
  7  4  1  0
  8 14  1  0
  8  9  1  0
  9 10  2  0
 11  9  1  0
 11 13  1  0
 11  2  1  0
 12  8  1  0
 14 20  1  0
 15 23  1  0
 15 16  1  0
 16 17  1  0
 17 40  1  0
 18 17  1  0
 19 18  1  0
 19 15  1  0
 20 19  1  0
 21 20  2  0
 22 25  1  0
 23 22  1  0
 24 23  2  0
 26 32  1  0
 26 22  1  0
 27 38  1  0
 27 28  1  0
 29 28  2  0
 30 27  2  0
 31 30  1  0
 31 32  2  0
 32 29  1  0
 33 34  1  0
 34 38  2  0
 34 35  1  0
 35 36  1  0
 37 36  1  0
 38 37  1  0
 39 35  1  0
 41 40  1  0
 42 45  1  1
 42 14  1  0
 43 42  1  0
 44 42  1  0
 46 47  1  0
 46  3  1  0
 48  4  1  0
 49 48  1  0
 50 49  2  0
 51 49  1  0
 51 54  1  0
 52 50  1  0
 53 50  1  0
 55 56  2  0
 57 51  1  0
 57 55  1  0
 58 57  1  0
 59 55  1  0
 60 59  1  0
 60 61  1  0
 61 75  2  0
 62 60  1  0
 62 67  1  0
 63 64  1  0
 63 62  2  0
 64 65  2  0
 65 67  1  0
 65 66  1  0
 67 68  1  0
 68 74  2  0
 68 69  1  0
 69 70  1  0
 70 71  1  0
 72 73  1  0
 72 70  2  0
 74 72  1  0
 75 76  1  0
 75 74  1  0
 76 77  1  0
 77 78  2  0
 79 80  1  0
 79 78  1  0
 81 79  2  0
 82 81  1  0
 82 76  2  0
M  ISO  4   9 101  11 101  55 100  57 100
M  END
>  <TORSDO>  (113) 
F 16

>  <SCORE>  (113) 
-12.592

>  <name>  (113) 
112

>  <ligand_id>  (113) 
112

>  <original_smiles>  (113) 
[H]ON([H])C(N([H])N([H])C(=O)N([H])C([H])(C(=O)N1C([H])([H])C([H])(O[H])C([H])([H])C1([H])C(=O)N([H])C([H])([H])c1c([H])c([H])c(C2=C(C([H])([H])[H])N([H])C([H])([H])S2)c([H])c1[H])C(C([H])([H])[H])(C([H])([H])[H])C([H])([H])[H])=[N+]([H])C([H])([H])C(N([H])[H])=[N+]([H])N([H])C(=O)C([H])([H])C1([H])N=C(c2c([H])c([H])c(Cl)c([H])c2[H])c2c(sc(C([H])([H])[H])c2C([H])([H])[H])-n2c(C([H])([H])[H])nnc21

>  <smiles>  (113) 
[H]ON([H])C(N([H])N([H])C(=O)N([H])C([H])(C(=O)N1C([H])([H])C([H])(O[H])C([H])([H])C1([H])C(=O)N([H])C([H])([H])c1c([H])c([H])c(C2=C(C([H])([H])[H])N([H])C([H])([H])S2)c([H])c1[H])C(C([H])([H])[H])(C([H])([H])[H])C([H])([H])[H])=[N+]([H])C([H])([H])C(N([H])[H])=[N+]([H])N([H])C(=O)C([H])([H])C1([H])N=C(c2c([H])c([H])c(Cl)c([H])c2[H])c2c(sc(C([H])([H])[H])c2C([H])([H])[H])-n2c(C([H])([H])[H])nnc21

$$$$
113:0:0
     RDKit          3D

 77 83  0  0  1  0  0  0  0  0999 V2000
   26.6320  -27.1040  -17.2340 C   0  0  0  0  0  3  0  0  0  0  0  0
   24.4240  -28.2300  -17.6580 C   0  0  0  0  0  0  0  0  0  0  0  0
   27.0230  -27.0160  -18.6890 C   0  0  0  0  0  1  0  0  0  0  0  0
   25.4700  -27.6900  -16.8100 N   0  0  0  0  0  0  0  0  0  0  0  0
   27.5470  -26.5920  -16.3680 N   0  0  0  0  0  0  0  0  0  0  0  0
   24.3650  -27.9980  -18.8680 O   0  0  0  0  0  0  0  0  0  0  0  0
   25.4220  -27.8040  -15.8090 H   0  0  0  0  0  0  0  0  0  0  0  0
   28.4250  -26.2250  -16.7250 H   0  0  0  0  0  0  0  0  0  0  0  0
   25.9220  -24.7510  -15.4270 N   0  0  0  0  0  0  0  0  0  0  0  0
   26.8510  -25.2190  -14.5930 C   0  0  0  0  0  0  0  0  0  0  0  0
   27.1820  -24.6450  -13.5510 O   0  0  0  0  0  0  0  0  0  0  0  0
   27.3160  -26.4190  -14.9830 N   0  0  0  0  0  0  0  0  0  0  0  0
   25.7260  -25.2940  -16.2470 H   0  0  0  0  0  0  0  0  0  0  0  0
   28.0720  -26.8720  -14.4870 H   0  0  0  0  0  0  0  0  0  0  0  0
   24.9910  -23.6530  -15.2330 C   0  0  0  0  0  3  0  0  0  0  0  0
   21.8880  -23.9760  -12.8360 C   0  0  0  0  0  3  0  0  0  0  0  0
   21.4500  -22.7630  -12.0000 C   0  0  0  0  0  2  0  0  0  0  0  0
   22.7240  -21.9750  -11.7810 C   0  0  0  0  0  3  0  0  0  0  0  0
   23.5860  -22.2680  -13.0070 C   0  0  0  0  0  2  0  0  0  0  0  0
   23.0870  -23.5270  -13.5730 N   0  0  0  0  0  0  0  0  0  0  0  0
   23.7250  -24.2410  -14.5360 C   0  0  0  0  0  0  0  0  0  0  0  0
   23.3590  -25.3810  -14.8550 O   0  0  0  0  0  0  0  0  0  0  0  0
   19.9160  -25.3730  -13.1510 N   0  0  0  0  0  0  0  0  0  0  0  0
   20.7110  -24.4510  -13.7030 C   0  0  0  0  0  0  0  0  0  0  0  0
   20.4980  -23.9490  -14.8080 O   0  0  0  0  0  0  0  0  0  0  0  0
   20.1760  -25.7440  -12.2480 H   0  0  0  0  0  0  0  0  0  0  0  0
   18.6410  -25.8200  -13.6980 C   0  0  0  0  0  2  0  0  0  0  0  0
   15.3190  -23.2130  -12.6370 C   0  0  0  0  0  0  0  0  0  0  0  0
   16.3640  -23.4380  -11.7180 C   0  0  0  0  0  3  0  0  0  0  0  0
   17.4400  -24.2770  -12.0570 C   0  0  0  0  0  3  0  0  0  0  0  0
   15.3660  -23.8300  -13.9050 C   0  0  0  0  0  3  0  0  0  0  0  0
   16.4450  -24.6700  -14.2440 C   0  0  0  0  0  3  0  0  0  0  0  0
   17.4870  -24.8990  -13.3230 C   0  0  0  0  0  0  0  0  0  0  0  0
   12.1800  -23.6830  -13.2210 C   0  0  0  0  0  1  0  0  0  0  0  0
   12.8560  -22.5460  -12.4790 C   0  0  0  0  0  0  0  0  0  0  0  0
   12.0520  -21.5810  -11.9080 N   0  0  0  0  0  0  0  0  0  0  0  0
   12.7080  -20.6310  -11.0180 C   0  0  0  0  0  2  0  0  0  0  0  0
   14.4700  -20.9120  -11.3380 S   0  0  0  0  0  0  0  0  0  0  0  0
   14.1640  -22.3940  -12.2300 C   0  0  0  0  0  0  0  0  0  0  0  0
   11.0380  -21.6250  -11.9180 H   0  0  0  0  0  0  0  0  0  0  0  0
   23.3990  -22.4400  -10.6220 O   0  0  0  0  0  0  0  0  0  0  0  0
   23.5960  -23.3650  -10.7370 H   0  0  0  0  0  0  0  0  0  0  0  0
   24.7060  -23.0550  -16.6590 C   0  0  1  0  0  0  0  0  0  0  0  0
   26.0130  -22.4210  -17.1930 C   0  0  0  0  0  1  0  0  0  0  0  0
   24.2350  -24.1100  -17.6920 C   0  0  0  0  0  1  0  0  0  0  0  0
   23.6500  -21.9320  -16.6150 C   0  0  0  0  0  1  0  0  0  0  0  0
   23.4210  -29.1880  -16.9820 C   0  0  0  0  0  2  0  0  0  0  0  0
   22.1620  -29.4170  -17.7380 N   0  0  0  0  0  0  0  0  0  0  0  0
   22.2330  -28.9470  -18.6400 H   0  0  0  0  0  0  0  0  0  0  0  0
   20.9450  -31.4910  -17.2810 C   0  0  0  0  0  0  0  0  0  0  0  0
   20.2020  -30.9720  -16.4430 O   0  0  0  0  0  0  0  0  0  0  0  0
   21.8820  -30.7950  -17.9550 N   0  0  0  0  0  0  0  0  0  0  0  0
   22.5010  -31.3080  -18.5700 H   0  0  0  0  0  0  0  0  0  0  0  0
   20.9700  -33.0210  -17.4490 C   0  0  0  0  0  2  0  0  0  0  0  0
   21.4800  -33.7140  -16.1580 C   0  0  0  0  0  3  0  0  0  0  0  0
   22.8130  -33.2040  -15.8270 N   0  0  0  0  0  0  0  0  0  0  0  0
   21.5190  -35.2330  -16.2140 C   0  0  0  0  0  0  0  0  0  0  0  0
   21.3320  -36.0020  -17.2930 N   0  0  0  0  0  0  0  0  0  0  0  0
   21.5570  -37.3000  -16.8720 N   0  0  0  0  0  0  0  0  0  0  0  0
   21.8770  -37.2120  -15.5760 C   0  0  0  0  0  0  0  0  0  0  0  0
   22.2640  -38.3970  -14.7400 C   0  0  0  0  0  1  0  0  0  0  0  0
   21.8430  -35.9430  -15.1140 N   0  0  0  0  0  0  0  0  0  0  0  0
   22.0720  -35.4260  -13.8210 C   0  0  0  0  0  0  0  0  0  0  0  0
   21.5310  -36.1520  -12.3430 S   0  0  0  0  0  0  0  0  0  0  0  0
   22.1270  -34.8060  -11.4130 C   0  0  0  0  0  0  0  0  0  0  0  0
   21.9570  -34.8030   -9.9280 C   0  0  0  0  0  1  0  0  0  0  0  0
   22.6980  -33.8380  -12.2090 C   0  0  0  0  0  0  0  0  0  0  0  0
   23.2240  -32.5420  -11.6500 C   0  0  0  0  0  1  0  0  0  0  0  0
   22.7040  -34.2220  -13.5970 C   0  0  0  0  0  0  0  0  0  0  0  0
   23.3360  -33.4020  -14.6760 C   0  0  0  0  0  0  0  0  0  0  0  0
   24.6630  -32.7990  -14.4200 C   0  0  0  0  0  0  0  0  0  0  0  0
   25.7020  -33.5710  -13.8610 C   0  0  0  0  0  3  0  0  0  0  0  0
   26.9530  -32.9810  -13.5980 C   0  0  0  0  0  3  0  0  0  0  0  0
   27.1730  -31.6230  -13.9010 C   0  0  0  0  0  0  0  0  0  0  0  0
   28.7040  -30.9020  -13.5740 Cl  0  0  0  0  0  0  0  0  0  0  0  0
   26.1370  -30.8510  -14.4540 C   0  0  0  0  0  3  0  0  0  0  0  0
   24.8810  -31.4380  -14.6960 C   0  0  0  0  0  3  0  0  0  0  0  0
  1  3  1  0
  1  4  1  0
  1  5  1  0
  2 47  1  0
  2  4  1  0
  4  7  1  0
  5 12  1  0
  6  2  2  0
  8  5  1  0
  9 15  1  0
  9 10  1  0
 10 11  2  0
 12 10  1  0
 12 14  1  0
 13  9  1  0
 15 21  1  0
 16 24  1  0
 16 17  1  0
 17 18  1  0
 18 41  1  0
 19 18  1  0
 20 19  1  0
 20 16  1  0
 21 20  1  0
 22 21  2  0
 23 26  1  0
 24 23  1  0
 25 24  2  0
 27 33  1  0
 27 23  1  0
 28 39  1  0
 28 29  1  0
 30 29  2  0
 31 28  2  0
 32 31  1  0
 32 33  2  0
 33 30  1  0
 34 35  1  0
 35 39  2  0
 35 36  1  0
 36 37  1  0
 38 37  1  0
 39 38  1  0
 40 36  1  0
 42 41  1  0
 43 46  1  1
 43 15  1  0
 44 43  1  0
 45 43  1  0
 48 47  1  0
 49 48  1  0
 50 51  2  0
 52 48  1  0
 52 50  1  0
 53 52  1  0
 54 50  1  0
 55 54  1  0
 55 56  1  0
 56 70  2  0
 57 55  1  0
 57 62  1  0
 58 59  1  0
 58 57  2  0
 59 60  2  0
 60 62  1  0
 60 61  1  0
 62 63  1  0
 63 69  2  0
 63 64  1  0
 64 65  1  0
 65 66  1  0
 67 68  1  0
 67 65  2  0
 69 67  1  0
 70 71  1  0
 70 69  1  0
 71 72  1  0
 72 73  2  0
 74 73  1  0
 74 75  1  0
 76 74  2  0
 77 76  1  0
 77 71  2  0
M  ISO  4  10 101  12 101  50 100  52 100
M  END
>  <TORSDO>  (114) 
F 15

>  <SCORE>  (114) 
-14.635

>  <name>  (114) 
113

>  <ligand_id>  (114) 
113

>  <original_smiles>  (114) 
[H]OC1([H])C([H])([H])N(C(=O)C([H])(N([H])C(=O)N([H])[N+]([H])=C(N([H])C(=O)C([H])([H])N([H])N([H])C(=O)C([H])([H])C2([H])N=C(c3c([H])c([H])c(Cl)c([H])c3[H])c3c(sc(C([H])([H])[H])c3C([H])([H])[H])-n3c(C([H])([H])[H])nnc32)C([H])([H])[H])C(C([H])([H])[H])(C([H])([H])[H])C([H])([H])[H])C([H])(C(=O)N([H])C([H])([H])c2c([H])c([H])c(C3=C(C([H])([H])[H])N([H])C([H])([H])S3)c([H])c2[H])C1([H])[H]

>  <smiles>  (114) 
[H]OC1([H])C([H])([H])N(C(=O)C([H])(N([H])C(=O)N([H])[N+]([H])=C(N([H])C(=O)C([H])([H])N([H])N([H])C(=O)C([H])([H])C2([H])N=C(c3c([H])c([H])c(Cl)c([H])c3[H])c3c(sc(C([H])([H])[H])c3C([H])([H])[H])-n3c(C([H])([H])[H])nnc32)C([H])([H])[H])C(C([H])([H])[H])(C([H])([H])[H])C([H])([H])[H])C([H])(C(=O)N([H])C([H])([H])c2c([H])c([H])c(C3=C(C([H])([H])[H])N([H])C([H])([H])S3)c([H])c2[H])C1([H])[H]

$$$$
114:0:0
     RDKit          3D

 84 90  0  0  1  0  0  0  0  0999 V2000
   24.6880  -28.4090  -16.6230 C   0  0  0  0  0  0  0  0  0  0  0  0
   25.8070  -29.2710  -14.5640 C   0  0  0  0  0  0  0  0  0  0  0  0
   23.5980  -28.8160  -17.1980 N   0  0  0  0  0  0  0  0  0  0  0  0
   25.4730  -29.6090  -13.3310 N   0  0  0  0  0  0  0  0  0  0  0  0
   24.7790  -28.7730  -15.2710 N   0  0  0  0  0  0  0  0  0  0  0  0
   25.7330  -27.6140  -17.1470 N   0  0  0  0  0  0  0  0  0  0  0  0
   26.9620  -29.4150  -14.9510 O   0  0  0  0  0  0  0  0  0  0  0  0
   24.5350  -29.5160  -12.9730 H   0  0  0  0  0  0  0  0  0  0  0  0
   26.1880  -29.9870  -12.7250 H   0  0  0  0  0  0  0  0  0  0  0  0
   23.8920  -28.7800  -14.7930 H   0  0  0  0  0  0  0  0  0  0  0  0
   25.9510  -27.5140  -18.1350 H   0  0  0  0  0  0  0  0  0  0  0  0
   25.6260  -24.9880  -16.7760 N   0  0  0  0  0  0  0  0  0  0  0  0
   26.5530  -25.5960  -16.0380 C   0  0  0  0  0  0  0  0  0  0  0  0
   27.1630  -25.0600  -15.1150 O   0  0  0  0  0  0  0  0  0  0  0  0
   26.6550  -26.8990  -16.3330 N   0  0  0  0  0  0  0  0  0  0  0  0
   25.2370  -25.5570  -17.5040 H   0  0  0  0  0  0  0  0  0  0  0  0
   27.2630  -27.4880  -15.7740 H   0  0  0  0  0  0  0  0  0  0  0  0
   24.7910  -23.8620  -16.3800 C   0  0  0  0  0  3  0  0  0  0  0  0
   22.0970  -24.1000  -13.5190 C   0  0  0  0  0  3  0  0  0  0  0  0
   21.7190  -22.8410  -12.7260 C   0  0  0  0  0  2  0  0  0  0  0  0
   22.9670  -21.9840  -12.7610 C   0  0  0  0  0  3  0  0  0  0  0  0
   23.6550  -22.3390  -14.0770 C   0  0  0  0  0  2  0  0  0  0  0  0
   23.1500  -23.6620  -14.4590 N   0  0  0  0  0  0  0  0  0  0  0  0
   23.6630  -24.4180  -15.4580 C   0  0  0  0  0  0  0  0  0  0  0  0
   23.2690  -25.5720  -15.6470 O   0  0  0  0  0  0  0  0  0  0  0  0
   20.1330  -25.5430  -13.3800 N   0  0  0  0  0  0  0  0  0  0  0  0
   20.8320  -24.7060  -14.1530 C   0  0  0  0  0  0  0  0  0  0  0  0
   20.4720  -24.3750  -15.2850 O   0  0  0  0  0  0  0  0  0  0  0  0
   20.5050  -25.7690  -12.4670 H   0  0  0  0  0  0  0  0  0  0  0  0
   18.8140  -26.0750  -13.6980 C   0  0  0  0  0  2  0  0  0  0  0  0
   15.5850  -23.3530  -12.6450 C   0  0  0  0  0  0  0  0  0  0  0  0
   16.7370  -23.4320  -11.8350 C   0  0  0  0  0  3  0  0  0  0  0  0
   17.7830  -24.3080  -12.1740 C   0  0  0  0  0  3  0  0  0  0  0  0
   15.4930  -24.1560  -13.8010 C   0  0  0  0  0  3  0  0  0  0  0  0
   16.5410  -25.0340  -14.1400 C   0  0  0  0  0  3  0  0  0  0  0  0
   17.6910  -25.1150  -13.3290 C   0  0  0  0  0  0  0  0  0  0  0  0
   12.4080  -23.8900  -12.8250 C   0  0  0  0  0  1  0  0  0  0  0  0
   13.1450  -22.6680  -12.3140 C   0  0  0  0  0  0  0  0  0  0  0  0
   12.3950  -21.6350  -11.7890 N   0  0  0  0  0  0  0  0  0  0  0  0
   13.1300  -20.5810  -11.0990 C   0  0  0  0  0  2  0  0  0  0  0  0
   14.8510  -20.9040  -11.5690 S   0  0  0  0  0  0  0  0  0  0  0  0
   14.4700  -22.4870  -12.2260 C   0  0  0  0  0  0  0  0  0  0  0  0
   11.3850  -21.6780  -11.6840 H   0  0  0  0  0  0  0  0  0  0  0  0
   23.8280  -22.3230  -11.6860 O   0  0  0  0  0  0  0  0  0  0  0  0
   24.0560  -23.2450  -11.7600 H   0  0  0  0  0  0  0  0  0  0  0  0
   24.2430  -23.1980  -17.6930 C   0  0  1  0  0  0  0  0  0  0  0  0
   25.4120  -22.4880  -18.4120 C   0  0  0  0  0  1  0  0  0  0  0  0
   23.6160  -24.2100  -18.6860 C   0  0  0  0  0  1  0  0  0  0  0  0
   23.1820  -22.1230  -17.3780 C   0  0  0  0  0  1  0  0  0  0  0  0
   23.3620  -28.3830  -18.5160 N   0  0  0  0  0  4  0  0  0  0  0  0
   24.2420  -28.1610  -18.9510 H   0  0  0  0  0  0  0  0  0  0  0  0
   22.7690  -27.5650  -18.4830 H   0  0  0  0  0  0  0  0  0  0  0  0
   22.7050  -29.3640  -19.3720 N   0  0  0  0  0  0  0  0  0  0  0  0
   22.4820  -28.8500  -20.2240 H   0  0  0  0  0  0  0  0  0  0  0  0
   21.5360  -30.0610  -18.9180 N   0  0  0  0  0  0  0  0  0  0  0  0
   21.3630  -29.8360  -17.9360 H   0  0  0  0  0  0  0  0  0  0  0  0
   21.0300  -32.2540  -18.1140 C   0  0  0  0  0  0  0  0  0  0  0  0
   20.2270  -31.8540  -17.2650 O   0  0  0  0  0  0  0  0  0  0  0  0
   21.5540  -31.4530  -19.0540 N   0  0  0  0  0  0  0  0  0  0  0  0
   22.2020  -31.8540  -19.7220 H   0  0  0  0  0  0  0  0  0  0  0  0
   21.6260  -33.6630  -18.0240 C   0  0  0  0  0  2  0  0  0  0  0  0
   21.8860  -34.0830  -16.5520 C   0  0  0  0  0  3  0  0  0  0  0  0
   23.2450  -33.7010  -16.1550 N   0  0  0  0  0  0  0  0  0  0  0  0
   21.6770  -35.5610  -16.2810 C   0  0  0  0  0  0  0  0  0  0  0  0
   21.4770  -36.5230  -17.1890 N   0  0  0  0  0  0  0  0  0  0  0  0
   21.4320  -37.7060  -16.4780 N   0  0  0  0  0  0  0  0  0  0  0  0
   21.6210  -37.3690  -15.1980 C   0  0  0  0  0  0  0  0  0  0  0  0
   21.7050  -38.3690  -14.0870 C   0  0  0  0  0  1  0  0  0  0  0  0
   21.7540  -36.0370  -15.0230 N   0  0  0  0  0  0  0  0  0  0  0  0
   21.9280  -35.2760  -13.8480 C   0  0  0  0  0  0  0  0  0  0  0  0
   21.1160  -35.5560  -12.3420 S   0  0  0  0  0  0  0  0  0  0  0  0
   21.8360  -34.1350  -11.6390 C   0  0  0  0  0  0  0  0  0  0  0  0
   21.5150  -33.7720  -10.2240 C   0  0  0  0  0  1  0  0  0  0  0  0
   22.6460  -33.4670  -12.5330 C   0  0  0  0  0  0  0  0  0  0  0  0
   23.3330  -32.1690  -12.1890 C   0  0  0  0  0  1  0  0  0  0  0  0
   22.7290  -34.1550  -13.7960 C   0  0  0  0  0  0  0  0  0  0  0  0
   23.6070  -33.7060  -14.9250 C   0  0  0  0  0  0  0  0  0  0  0  0
   24.9870  -33.2750  -14.6140 C   0  0  0  0  0  0  0  0  0  0  0  0
   25.6640  -33.8150  -13.4980 C   0  0  0  0  0  3  0  0  0  0  0  0
   26.9660  -33.3840  -13.1780 C   0  0  0  0  0  3  0  0  0  0  0  0
   27.6020  -32.4240  -13.9830 C   0  0  0  0  0  0  0  0  0  0  0  0
   29.1940  -31.8770  -13.6110 Cl  0  0  0  0  0  0  0  0  0  0  0  0
   26.9440  -31.9200  -15.1100 C   0  0  0  0  0  3  0  0  0  0  0  0
   25.6320  -32.3220  -15.4250 C   0  0  0  0  0  3  0  0  0  0  0  0
  1  5  1  0
  2  4  1  0
  3  1  2  0
  4  8  1  0
  4  9  1  0
  5 10  1  0
  5  2  1  0
  6  1  1  0
  6 15  1  0
  7  2  2  0
 11  6  1  0
 12 18  1  0
 12 13  1  0
 13 14  2  0
 15 13  1  0
 15 17  1  0
 16 12  1  0
 18 24  1  0
 19 27  1  0
 19 20  1  0
 21 20  1  0
 21 44  1  0
 22 21  1  0
 23 22  1  0
 23 19  1  0
 24 23  1  0
 25 24  2  0
 26 29  1  0
 27 26  1  0
 28 27  2  0
 30 26  1  0
 30 36  1  0
 31 42  1  0
 31 32  1  0
 33 32  2  0
 34 31  2  0
 35 34  1  0
 35 36  2  0
 36 33  1  0
 37 38  1  0
 38 42  2  0
 38 39  1  0
 39 43  1  0
 39 40  1  0
 41 40  1  0
 42 41  1  0
 45 44  1  0
 46 49  1  1
 46 18  1  0
 47 46  1  0
 48 46  1  0
 50 52  1  0
 50  3  1  0
 51 50  1  0
 53 55  1  0
 53 50  1  0
 54 53  1  0
 55 56  1  0
 57 61  1  0
 57 58  2  0
 59 55  1  0
 59 57  1  0
 60 59  1  0
 62 61  1  0
 62 64  1  0
 62 63  1  0
 63 77  2  0
 64 69  1  0
 65 66  1  0
 65 64  2  0
 66 67  2  0
 67 69  1  0
 67 68  1  0
 69 70  1  0
 70 76  2  0
 70 71  1  0
 71 72  1  0
 72 73  1  0
 74 75  1  0
 74 72  2  0
 76 74  1  0
 77 78  1  0
 77 76  1  0
 78 79  1  0
 79 80  2  0
 81 82  1  0
 81 80  1  0
 83 81  2  0
 84 83  1  0
 84 78  2  0
M  ISO  4  13 101  15 101  57 100  59 100
M  END
>  <TORSDO>  (115) 
F 16

>  <SCORE>  (115) 
-8.057

>  <name>  (115) 
114

>  <ligand_id>  (115) 
114

>  <original_smiles>  (115) 
[H]OC1([H])C([H])([H])N(C(=O)C([H])(N([H])C(=O)N([H])N([H])C(=N[N+]([H])([H])N([H])N([H])N([H])C(=O)C([H])([H])C2([H])N=C(c3c([H])c([H])c(Cl)c([H])c3[H])c3c(sc(C([H])([H])[H])c3C([H])([H])[H])-n3c(C([H])([H])[H])nnc32)N([H])C(=O)N([H])[H])C(C([H])([H])[H])(C([H])([H])[H])C([H])([H])[H])C([H])(C(=O)N([H])C([H])([H])c2c([H])c([H])c(C3=C(C([H])([H])[H])N([H])C([H])([H])S3)c([H])c2[H])C1([H])[H]

>  <smiles>  (115) 
[H]OC1([H])C([H])([H])N(C(=O)C([H])(N([H])C(=O)N([H])N([H])C(=N[N+]([H])([H])N([H])N([H])N([H])C(=O)C([H])([H])C2([H])N=C(c3c([H])c([H])c(Cl)c([H])c3[H])c3c(sc(C([H])([H])[H])c3C([H])([H])[H])-n3c(C([H])([H])[H])nnc32)N([H])C(=O)N([H])[H])C(C([H])([H])[H])(C([H])([H])[H])C([H])([H])[H])C([H])(C(=O)N([H])C([H])([H])c2c([H])c([H])c(C3=C(C([H])([H])[H])N([H])C([H])([H])S3)c([H])c2[H])C1([H])[H]

$$$$
115:0:0
     RDKit          3D

 80 87  0  0  1  0  0  0  0  0999 V2000
   26.7850  -26.3410  -19.9250 C   0  0  0  0  0  3  0  0  0  0  0  0
   25.8100  -27.1630  -19.3330 C   0  0  0  0  0  3  0  0  0  0  0  0
   27.7770  -25.7710  -19.1190 C   0  0  0  0  0  3  0  0  0  0  0  0
   25.8920  -27.4630  -17.9550 C   0  0  0  0  0  0  0  0  0  0  0  0
   26.9750  -26.8850  -17.2330 C   0  0  0  0  0  0  0  0  0  0  0  0
   27.8660  -26.0360  -17.7990 N   0  0  0  0  0  0  0  0  0  0  0  0
   24.8660  -28.3410  -17.2140 C   0  0  0  0  0  2  0  0  0  0  0  0
   20.7930  -31.1730  -17.0640 C   0  0  0  0  0  0  0  0  0  0  0  0
   20.1290  -30.6330  -16.1700 O   0  0  0  0  0  0  0  0  0  0  0  0
   22.5810  -29.3940  -17.2980 C   0  0  0  0  0  0  0  0  0  0  0  0
   21.9240  -30.5210  -17.7000 N   0  0  0  0  0  0  0  0  0  0  0  0
   23.7270  -29.0090  -17.9200 N   0  0  0  0  0  0  0  0  0  0  0  0
   22.1760  -28.6670  -16.2430 N   0  0  0  0  0  4  0  0  0  0  0  0
   22.4330  -31.0430  -18.3930 H   0  0  0  0  0  0  0  0  0  0  0  0
   23.9190  -29.3720  -18.8450 H   0  0  0  0  0  0  0  0  0  0  0  0
   21.3330  -28.9330  -15.7420 H   0  0  0  0  0  0  0  0  0  0  0  0
   22.5860  -27.7670  -16.0210 H   0  0  0  0  0  0  0  0  0  0  0  0
   20.7710  -32.6870  -17.3160 C   0  0  0  0  0  2  0  0  0  0  0  0
   21.2500  -33.4400  -16.0480 C   0  0  0  0  0  3  0  0  0  0  0  0
   22.5990  -32.9620  -15.7320 N   0  0  0  0  0  0  0  0  0  0  0  0
   21.2720  -34.9490  -16.1840 C   0  0  0  0  0  0  0  0  0  0  0  0
   21.0300  -35.6510  -17.2950 N   0  0  0  0  0  0  0  0  0  0  0  0
   21.2620  -36.9700  -16.9610 N   0  0  0  0  0  0  0  0  0  0  0  0
   21.6330  -36.9540  -15.6750 C   0  0  0  0  0  0  0  0  0  0  0  0
   22.0500  -38.1680  -14.9180 C   0  0  0  0  0  1  0  0  0  0  0  0
   21.6320  -35.7150  -15.1390 N   0  0  0  0  0  0  0  0  0  0  0  0
   21.9190  -35.2780  -13.8290 C   0  0  0  0  0  0  0  0  0  0  0  0
   21.4390  -36.0880  -12.3720 S   0  0  0  0  0  0  0  0  0  0  0  0
   22.0890  -34.8050  -11.3900 C   0  0  0  0  0  0  0  0  0  0  0  0
   21.9970  -34.9000   -9.9010 C   0  0  0  0  0  1  0  0  0  0  0  0
   22.6310  -33.7910  -12.1500 C   0  0  0  0  0  0  0  0  0  0  0  0
   23.2010  -32.5390  -11.5340 C   0  0  0  0  0  1  0  0  0  0  0  0
   22.5700  -34.0930  -13.5570 C   0  0  0  0  0  0  0  0  0  0  0  0
   23.1620  -33.2170  -14.6140 C   0  0  0  0  0  0  0  0  0  0  0  0
   24.4930  -32.6230  -14.3780 C   0  0  0  0  0  0  0  0  0  0  0  0
   25.5420  -33.4210  -13.8750 C   0  0  0  0  0  3  0  0  0  0  0  0
   26.8070  -32.8530  -13.6400 C   0  0  0  0  0  3  0  0  0  0  0  0
   27.0250  -31.4870  -13.8980 C   0  0  0  0  0  0  0  0  0  0  0  0
   28.5770  -30.7920  -13.6330 Cl  0  0  0  0  0  0  0  0  0  0  0  0
   25.9710  -30.6850  -14.3710 C   0  0  0  0  0  3  0  0  0  0  0  0
   24.7070  -31.2510  -14.6240 C   0  0  0  0  0  3  0  0  0  0  0  0
   27.2190  -27.1750  -15.7480 C   0  0  0  0  0  2  0  0  0  0  0  0
   25.9840  -24.6730  -15.3770 N   0  0  0  0  0  0  0  0  0  0  0  0
   26.9590  -25.0350  -14.5300 C   0  0  0  0  0  0  0  0  0  0  0  0
   27.1950  -24.4410  -13.4840 O   0  0  0  0  0  0  0  0  0  0  0  0
   27.7260  -26.0320  -14.9860 N   0  0  0  0  0  0  0  0  0  0  0  0
   25.9920  -25.1040  -16.2830 H   0  0  0  0  0  0  0  0  0  0  0  0
   28.6100  -26.1970  -14.5190 H   0  0  0  0  0  0  0  0  0  0  0  0
   24.9910  -23.6120  -15.1880 C   0  0  0  0  0  3  0  0  0  0  0  0
   21.8540  -23.9650  -12.8420 C   0  0  0  0  0  3  0  0  0  0  0  0
   21.3810  -22.7580  -12.0130 C   0  0  0  0  0  2  0  0  0  0  0  0
   22.6470  -21.9700  -11.7510 C   0  0  0  0  0  3  0  0  0  0  0  0
   23.5260  -22.2310  -12.9720 C   0  0  0  0  0  2  0  0  0  0  0  0
   23.0640  -23.5020  -13.5550 N   0  0  0  0  0  0  0  0  0  0  0  0
   23.7240  -24.2160  -14.5040 C   0  0  0  0  0  0  0  0  0  0  0  0
   23.3620  -25.3540  -14.8350 O   0  0  0  0  0  0  0  0  0  0  0  0
   19.8960  -25.3690  -13.1900 N   0  0  0  0  0  0  0  0  0  0  0  0
   20.6900  -24.4380  -13.7270 C   0  0  0  0  0  0  0  0  0  0  0  0
   20.4810  -23.9240  -14.8290 O   0  0  0  0  0  0  0  0  0  0  0  0
   20.1370  -25.7310  -12.2770 H   0  0  0  0  0  0  0  0  0  0  0  0
   18.6310  -25.8190  -13.7570 C   0  0  0  0  0  2  0  0  0  0  0  0
   15.2740  -23.2630  -12.6850 C   0  0  0  0  0  0  0  0  0  0  0  0
   16.3080  -23.4960  -11.7550 C   0  0  0  0  0  3  0  0  0  0  0  0
   17.3980  -24.3170  -12.0960 C   0  0  0  0  0  3  0  0  0  0  0  0
   15.3430  -23.8550  -13.9630 C   0  0  0  0  0  3  0  0  0  0  0  0
   16.4330  -24.6760  -14.3060 C   0  0  0  0  0  3  0  0  0  0  0  0
   17.4650  -24.9120  -13.3770 C   0  0  0  0  0  0  0  0  0  0  0  0
   12.1470  -23.7270  -13.3370 C   0  0  0  0  0  1  0  0  0  0  0  0
   12.8040  -22.6100  -12.5530 C   0  0  0  0  0  0  0  0  0  0  0  0
   11.9870  -21.6650  -11.9650 N   0  0  0  0  0  0  0  0  0  0  0  0
   12.6220  -20.7390  -11.0340 C   0  0  0  0  0  2  0  0  0  0  0  0
   14.3900  -21.0060  -11.3300 S   0  0  0  0  0  0  0  0  0  0  0  0
   14.1080  -22.4630  -12.2730 C   0  0  0  0  0  0  0  0  0  0  0  0
   10.9720  -21.7060  -12.0040 H   0  0  0  0  0  0  0  0  0  0  0  0
   23.3050  -22.4520  -10.5930 O   0  0  0  0  0  0  0  0  0  0  0  0
   23.5350  -23.3650  -10.7390 H   0  0  0  0  0  0  0  0  0  0  0  0
   24.6940  -22.9900  -16.6080 C   0  0  1  0  0  0  0  0  0  0  0  0
   25.9550  -22.2560  -17.1350 C   0  0  0  0  0  1  0  0  0  0  0  0
   24.2700  -24.0460  -17.6530 C   0  0  0  0  0  1  0  0  0  0  0  0
   23.5680  -21.9390  -16.5400 C   0  0  0  0  0  1  0  0  0  0  0  0
  1  2  2  0
  1  3  1  0
  2  4  1  0
  3  6  2  0
  4  5  2  0
  4  7  1  0
  5 42  1  0
  6  5  1  0
  8  9  2  0
 10 13  2  0
 11 10  1  0
 11  8  1  0
 12 10  1  0
 12  7  1  0
 13 17  1  0
 13 16  1  0
 14 11  1  0
 15 12  1  0
 18  8  1  0
 19 18  1  0
 19 20  1  0
 20 34  2  0
 21 19  1  0
 21 26  1  0
 22 23  1  0
 22 21  2  0
 23 24  2  0
 24 26  1  0
 24 25  1  0
 26 27  1  0
 27 33  2  0
 27 28  1  0
 28 29  1  0
 29 30  1  0
 31 32  1  0
 31 29  2  0
 33 31  1  0
 34 35  1  0
 34 33  1  0
 35 36  1  0
 36 37  2  0
 38 37  1  0
 38 39  1  0
 40 38  2  0
 41 35  2  0
 41 40  1  0
 42 46  1  0
 43 49  1  0
 43 44  1  0
 44 45  2  0
 46 44  1  0
 46 48  1  0
 47 43  1  0
 49 55  1  0
 50 58  1  0
 50 51  1  0
 51 52  1  0
 52 75  1  0
 53 52  1  0
 54 53  1  0
 54 50  1  0
 55 54  1  0
 56 55  2  0
 57 60  1  0
 58 57  1  0
 59 58  2  0
 61 67  1  0
 61 57  1  0
 62 73  1  0
 62 63  1  0
 64 63  2  0
 65 62  2  0
 66 65  1  0
 66 67  2  0
 67 64  1  0
 68 69  1  0
 69 73  2  0
 69 70  1  0
 70 71  1  0
 72 71  1  0
 73 72  1  0
 74 70  1  0
 76 75  1  0
 77 80  1  1
 77 49  1  0
 78 77  1  0
 79 77  1  0
M  ISO  4   8 100  11 100  44 101  46 101
M  END
>  <TORSDO>  (116) 
F 15

>  <SCORE>  (116) 
-14.392

>  <name>  (116) 
115

>  <ligand_id>  (116) 
115

>  <original_smiles>  (116) 
[H]OC1([H])C([H])([H])N(C(=O)C([H])(N([H])C(=O)N([H])C([H])([H])c2nc([H])c([H])c([H])c2C([H])([H])N([H])C(N([H])C(=O)C([H])([H])C2([H])N=C(c3c([H])c([H])c(Cl)c([H])c3[H])c3c(sc(C([H])([H])[H])c3C([H])([H])[H])-n3c(C([H])([H])[H])nnc32)=[N+]([H])[H])C(C([H])([H])[H])(C([H])([H])[H])C([H])([H])[H])C([H])(C(=O)N([H])C([H])([H])c2c([H])c([H])c(C3=C(C([H])([H])[H])N([H])C([H])([H])S3)c([H])c2[H])C1([H])[H]

>  <smiles>  (116) 
[H]OC1([H])C([H])([H])N(C(=O)C([H])(N([H])C(=O)N([H])C([H])([H])c2nc([H])c([H])c([H])c2C([H])([H])N([H])C(N([H])C(=O)C([H])([H])C2([H])N=C(c3c([H])c([H])c(Cl)c([H])c3[H])c3c(sc(C([H])([H])[H])c3C([H])([H])[H])-n3c(C([H])([H])[H])nnc32)=[N+]([H])[H])C(C([H])([H])[H])(C([H])([H])[H])C([H])([H])[H])C([H])(C(=O)N([H])C([H])([H])c2c([H])c([H])c(C3=C(C([H])([H])[H])N([H])C([H])([H])S3)c([H])c2[H])C1([H])[H]

$$$$
116:0:0
     RDKit          3D

 78 84  0  0  1  0  0  0  0  0999 V2000
   26.4920  -27.7070  -16.6490 C   0  0  0  0  0  0  0  0  0  0  0  0
   27.6960  -27.5760  -17.2130 N   0  0  0  0  0  4  0  0  0  0  0  0
   26.2850  -27.1570  -15.4360 N   0  0  0  0  0  0  0  0  0  0  0  0
   25.5050  -28.3630  -17.2910 N   0  0  0  0  0  0  0  0  0  0  0  0
   28.4220  -27.0850  -16.7150 H   0  0  0  0  0  0  0  0  0  0  0  0
   27.9100  -27.9470  -18.1260 H   0  0  0  0  0  0  0  0  0  0  0  0
   25.3770  -27.2280  -14.9880 H   0  0  0  0  0  0  0  0  0  0  0  0
   25.5890  -28.8310  -18.1860 H   0  0  0  0  0  0  0  0  0  0  0  0
   26.0030  -24.5850  -15.2940 N   0  0  0  0  0  0  0  0  0  0  0  0
   26.9590  -25.0870  -14.5080 C   0  0  0  0  0  0  0  0  0  0  0  0
   27.4620  -24.4630  -13.5730 O   0  0  0  0  0  0  0  0  0  0  0  0
   27.2730  -26.3590  -14.8020 N   0  0  0  0  0  0  0  0  0  0  0  0
   25.7230  -25.1450  -16.0800 H   0  0  0  0  0  0  0  0  0  0  0  0
   27.8790  -26.9480  -14.2440 H   0  0  0  0  0  0  0  0  0  0  0  0
   25.1030  -23.4740  -15.0140 C   0  0  0  0  0  3  0  0  0  0  0  0
   21.8560  -23.7740  -12.8100 C   0  0  0  0  0  3  0  0  0  0  0  0
   21.3140  -22.5320  -12.0860 C   0  0  0  0  0  2  0  0  0  0  0  0
   22.5400  -21.6810  -11.8310 C   0  0  0  0  0  3  0  0  0  0  0  0
   23.4940  -22.0090  -12.9780 C   0  0  0  0  0  2  0  0  0  0  0  0
   23.0860  -23.3230  -13.4920 N   0  0  0  0  0  0  0  0  0  0  0  0
   23.8160  -24.0700  -14.3600 C   0  0  0  0  0  0  0  0  0  0  0  0
   23.5190  -25.2440  -14.6170 O   0  0  0  0  0  0  0  0  0  0  0  0
   19.9860  -25.2960  -13.1810 N   0  0  0  0  0  0  0  0  0  0  0  0
   20.7580  -24.3480  -13.7220 C   0  0  0  0  0  0  0  0  0  0  0  0
   20.5810  -23.8990  -14.8570 O   0  0  0  0  0  0  0  0  0  0  0  0
   20.2130  -25.6170  -12.2500 H   0  0  0  0  0  0  0  0  0  0  0  0
   18.7730  -25.8360  -13.7810 C   0  0  0  0  0  2  0  0  0  0  0  0
   15.2240  -23.4780  -12.8870 C   0  0  0  0  0  0  0  0  0  0  0  0
   16.2440  -23.6160  -11.9220 C   0  0  0  0  0  3  0  0  0  0  0  0
   17.3930  -24.3730  -12.2080 C   0  0  0  0  0  3  0  0  0  0  0  0
   15.3690  -24.1030  -14.1430 C   0  0  0  0  0  3  0  0  0  0  0  0
   16.5190  -24.8610  -14.4290 C   0  0  0  0  0  3  0  0  0  0  0  0
   17.5380  -25.0020  -13.4640 C   0  0  0  0  0  0  0  0  0  0  0  0
   12.1570  -24.1750  -13.6070 C   0  0  0  0  0  1  0  0  0  0  0  0
   12.7150  -22.9920  -12.8420 C   0  0  0  0  0  0  0  0  0  0  0  0
   11.8200  -22.0850  -12.3110 N   0  0  0  0  0  0  0  0  0  0  0  0
   12.3650  -21.0910  -11.3940 C   0  0  0  0  0  2  0  0  0  0  0  0
   14.1550  -21.2440  -11.6350 S   0  0  0  0  0  0  0  0  0  0  0  0
   13.9960  -22.7450  -12.5350 C   0  0  0  0  0  0  0  0  0  0  0  0
   10.8110  -22.2020  -12.3670 H   0  0  0  0  0  0  0  0  0  0  0  0
   23.1470  -22.0500  -10.6030 O   0  0  0  0  0  0  0  0  0  0  0  0
   23.3870  -22.9710  -10.6500 H   0  0  0  0  0  0  0  0  0  0  0  0
   24.8370  -22.7470  -16.3800 C   0  0  1  0  0  0  0  0  0  0  0  0
   26.1530  -22.0870  -16.8540 C   0  0  0  0  0  1  0  0  0  0  0  0
   24.3500  -23.6990  -17.5010 C   0  0  0  0  0  1  0  0  0  0  0  0
   23.7980  -21.6170  -16.2290 C   0  0  0  0  0  1  0  0  0  0  0  0
   24.2270  -28.4290  -16.7720 O   0  0  0  0  0  0  0  0  0  0  0  0
   23.3770  -28.9010  -17.7210 C   0  0  0  0  0  0  0  0  0  0  0  0
   23.6900  -29.2000  -18.8820 O   0  0  0  0  0  0  0  0  0  0  0  0
   21.9300  -29.0500  -17.2340 C   0  0  0  0  0  2  0  0  0  0  0  0
   20.5900  -31.1130  -16.9410 C   0  0  0  0  0  0  0  0  0  0  0  0
   20.0020  -30.6830  -15.9470 O   0  0  0  0  0  0  0  0  0  0  0  0
   21.3870  -30.3350  -17.6840 N   0  0  0  0  0  0  0  0  0  0  0  0
   21.8690  -30.7550  -18.4690 H   0  0  0  0  0  0  0  0  0  0  0  0
   20.6110  -32.6180  -17.2420 C   0  0  0  0  0  2  0  0  0  0  0  0
   21.1670  -33.4230  -16.0340 C   0  0  0  0  0  3  0  0  0  0  0  0
   22.5040  -32.9280  -15.6940 N   0  0  0  0  0  0  0  0  0  0  0  0
   21.2210  -34.9250  -16.2460 C   0  0  0  0  0  0  0  0  0  0  0  0
   21.0010  -35.5820  -17.3910 N   0  0  0  0  0  0  0  0  0  0  0  0
   21.2520  -36.9120  -17.1120 N   0  0  0  0  0  0  0  0  0  0  0  0
   21.6140  -36.9530  -15.8260 C   0  0  0  0  0  0  0  0  0  0  0  0
   22.0380  -38.2110  -15.1290 C   0  0  0  0  0  1  0  0  0  0  0  0
   21.5860  -35.7390  -15.2350 N   0  0  0  0  0  0  0  0  0  0  0  0
   21.8540  -35.3590  -13.9050 C   0  0  0  0  0  0  0  0  0  0  0  0
   21.3700  -36.2410  -12.4910 S   0  0  0  0  0  0  0  0  0  0  0  0
   21.9910  -34.9950  -11.4460 C   0  0  0  0  0  0  0  0  0  0  0  0
   21.8760  -35.1540   -9.9630 C   0  0  0  0  0  1  0  0  0  0  0  0
   22.5260  -33.9410  -12.1570 C   0  0  0  0  0  0  0  0  0  0  0  0
   23.0660  -32.7040  -11.4840 C   0  0  0  0  0  1  0  0  0  0  0  0
   22.4810  -34.1750  -13.5780 C   0  0  0  0  0  0  0  0  0  0  0  0
   23.0700  -33.2370  -14.5880 C   0  0  0  0  0  0  0  0  0  0  0  0
   24.3990  -32.6480  -14.3200 C   0  0  0  0  0  0  0  0  0  0  0  0
   25.4320  -33.4520  -13.7890 C   0  0  0  0  0  3  0  0  0  0  0  0
   26.6900  -32.8880  -13.5060 C   0  0  0  0  0  3  0  0  0  0  0  0
   26.9190  -31.5220  -13.7520 C   0  0  0  0  0  0  0  0  0  0  0  0
   28.4550  -30.8230  -13.4040 Cl  0  0  0  0  0  0  0  0  0  0  0  0
   25.8910  -30.7220  -14.2810 C   0  0  0  0  0  3  0  0  0  0  0  0
   24.6330  -31.2800  -14.5720 C   0  0  0  0  0  3  0  0  0  0  0  0
  1  3  1  0
  2  5  1  0
  2  1  2  0
  3  7  1  0
  3 12  1  0
  4 47  1  0
  4  1  1  0
  6  2  1  0
  8  4  1  0
  9 15  1  0
  9 10  1  0
 10 11  2  0
 12 10  1  0
 12 14  1  0
 13  9  1  0
 15 21  1  0
 16 24  1  0
 16 17  1  0
 17 18  1  0
 18 41  1  0
 19 18  1  0
 20 19  1  0
 20 16  1  0
 21 20  1  0
 22 21  2  0
 23 26  1  0
 24 23  1  0
 25 24  2  0
 27 33  1  0
 27 23  1  0
 28 39  1  0
 28 29  1  0
 30 29  2  0
 31 28  2  0
 32 31  1  0
 32 33  2  0
 33 30  1  0
 34 35  1  0
 35 39  2  0
 35 36  1  0
 36 37  1  0
 38 37  1  0
 39 38  1  0
 40 36  1  0
 42 41  1  0
 43 46  1  1
 43 15  1  0
 44 43  1  0
 45 43  1  0
 48 50  1  0
 48 47  1  0
 49 48  2  0
 51 52  2  0
 53 50  1  0
 53 51  1  0
 54 53  1  0
 55 51  1  0
 56 55  1  0
 56 57  1  0
 57 71  2  0
 58 56  1  0
 58 63  1  0
 59 60  1  0
 59 58  2  0
 60 61  2  0
 61 63  1  0
 61 62  1  0
 63 64  1  0
 64 70  2  0
 64 65  1  0
 65 66  1  0
 66 67  1  0
 68 69  1  0
 68 66  2  0
 70 68  1  0
 71 72  1  0
 71 70  1  0
 72 73  1  0
 73 74  2  0
 75 74  1  0
 75 76  1  0
 77 75  2  0
 78 72  2  0
 78 77  1  0
M  ISO  4  10 101  12 101  51 100  53 100
M  END
>  <TORSDO>  (117) 
F 16

>  <SCORE>  (117) 
-13.206

>  <name>  (117) 
116

>  <ligand_id>  (117) 
116

>  <original_smiles>  (117) 
[H]OC1([H])C([H])([H])N(C(=O)C([H])(N([H])C(=O)N([H])N([H])C(N([H])[H])=[N+]([H])OC(=O)C([H])([H])N([H])C(=O)C([H])([H])C2([H])N=C(c3c([H])c([H])c(Cl)c([H])c3[H])c3c(sc(C([H])([H])[H])c3C([H])([H])[H])-n3c(C([H])([H])[H])nnc32)C(C([H])([H])[H])(C([H])([H])[H])C([H])([H])[H])C([H])(C(=O)N([H])C([H])([H])c2c([H])c([H])c(C3=C(C([H])([H])[H])N([H])C([H])([H])S3)c([H])c2[H])C1([H])[H]

>  <smiles>  (117) 
[H]OC1([H])C([H])([H])N(C(=O)C([H])(N([H])C(=O)N([H])N([H])C(N([H])[H])=[N+]([H])OC(=O)C([H])([H])N([H])C(=O)C([H])([H])C2([H])N=C(c3c([H])c([H])c(Cl)c([H])c3[H])c3c(sc(C([H])([H])[H])c3C([H])([H])[H])-n3c(C([H])([H])[H])nnc32)C(C([H])([H])[H])(C([H])([H])[H])C([H])([H])[H])C([H])(C(=O)N([H])C([H])([H])c2c([H])c([H])c(C3=C(C([H])([H])[H])N([H])C([H])([H])S3)c([H])c2[H])C1([H])[H]

$$$$
117:0:0
     RDKit          3D

 85 93  0  0  1  0  0  0  0  0999 V2000
   25.9080  -28.5550  -18.1220 C   0  0  0  0  0  0  0  0  0  0  0  0
   26.3970  -28.4150  -16.6880 C   0  0  0  0  0  2  0  0  0  0  0  0
   26.7620  -26.4550  -17.9140 C   0  0  0  0  0  2  0  0  0  0  0  0
   26.3630  -26.9360  -16.4950 C   0  0  0  0  0  3  0  0  0  0  0  0
   26.1310  -27.4220  -18.8270 N   0  0  0  0  0  0  0  0  0  0  0  0
   25.2470  -29.5290  -18.4710 O   0  0  0  0  0  0  0  0  0  0  0  0
   25.8150  -24.6380  -15.3990 N   0  0  0  0  0  0  0  0  0  0  0  0
   26.7720  -25.2060  -14.6860 C   0  0  0  0  0  0  0  0  0  0  0  0
   27.2450  -24.7310  -13.6570 O   0  0  0  0  0  0  0  0  0  0  0  0
   27.0810  -26.3790  -15.2980 N   0  0  0  0  0  0  0  0  0  0  0  0
   25.5050  -25.1820  -16.1770 H   0  0  0  0  0  0  0  0  0  0  0  0
   27.7240  -26.9740  -14.7860 H   0  0  0  0  0  0  0  0  0  0  0  0
   24.8940  -23.5740  -15.1840 C   0  0  0  0  0  3  0  0  0  0  0  0
   21.7930  -23.9560  -12.8450 C   0  0  0  0  0  3  0  0  0  0  0  0
   21.3140  -22.7530  -12.0280 C   0  0  0  0  0  2  0  0  0  0  0  0
   22.5620  -21.9260  -11.8030 C   0  0  0  0  0  3  0  0  0  0  0  0
   23.4540  -22.2150  -13.0070 C   0  0  0  0  0  2  0  0  0  0  0  0
   22.9890  -23.4890  -13.5570 N   0  0  0  0  0  0  0  0  0  0  0  0
   23.6600  -24.2090  -14.4800 C   0  0  0  0  0  0  0  0  0  0  0  0
   23.3320  -25.3670  -14.7700 O   0  0  0  0  0  0  0  0  0  0  0  0
   19.8780  -25.4170  -13.1560 N   0  0  0  0  0  0  0  0  0  0  0  0
   20.6390  -24.4770  -13.7200 C   0  0  0  0  0  0  0  0  0  0  0  0
   20.4080  -24.0080  -14.8390 O   0  0  0  0  0  0  0  0  0  0  0  0
   20.1490  -25.7470  -12.2400 H   0  0  0  0  0  0  0  0  0  0  0  0
   18.6210  -25.9190  -13.6920 C   0  0  0  0  0  2  0  0  0  0  0  0
   15.2090  -23.4140  -12.6710 C   0  0  0  0  0  0  0  0  0  0  0  0
   16.2470  -23.6080  -11.7400 C   0  0  0  0  0  3  0  0  0  0  0  0
   17.3570  -24.4080  -12.0670 C   0  0  0  0  0  3  0  0  0  0  0  0
   15.2910  -24.0380  -13.9360 C   0  0  0  0  0  3  0  0  0  0  0  0
   16.4000  -24.8400  -14.2630 C   0  0  0  0  0  3  0  0  0  0  0  0
   17.4390  -25.0290  -13.3320 C   0  0  0  0  0  0  0  0  0  0  0  0
   12.0980  -23.9540  -13.3060 C   0  0  0  0  0  1  0  0  0  0  0  0
   12.7340  -22.8060  -12.5490 C   0  0  0  0  0  0  0  0  0  0  0  0
   11.8960  -21.8680  -11.9790 N   0  0  0  0  0  0  0  0  0  0  0  0
   12.5150  -20.9090  -11.0700 C   0  0  0  0  0  2  0  0  0  0  0  0
   14.2850  -21.1470  -11.3670 S   0  0  0  0  0  0  0  0  0  0  0  0
   14.0320  -22.6250  -12.2720 C   0  0  0  0  0  0  0  0  0  0  0  0
   10.8810  -21.9410  -12.0030 H   0  0  0  0  0  0  0  0  0  0  0  0
   23.2420  -22.3310  -10.6280 O   0  0  0  0  0  0  0  0  0  0  0  0
   23.5400  -23.2300  -10.7270 H   0  0  0  0  0  0  0  0  0  0  0  0
   24.5760  -23.0670  -16.6400 C   0  0  1  0  0  0  0  0  0  0  0  0
   25.8910  -22.5430  -17.2850 C   0  0  0  0  0  1  0  0  0  0  0  0
   23.9150  -24.1760  -17.5200 C   0  0  0  0  0  1  0  0  0  0  0  0
   23.6000  -21.8760  -16.6020 C   0  0  0  0  0  1  0  0  0  0  0  0
   25.3120  -27.0150  -20.0110 C   0  0  0  0  0  2  0  0  0  0  0  0
   25.9890  -27.0440  -21.4300 C   0  0  0  0  0  2  0  0  0  0  0  0
   25.7430  -29.2180  -22.4530 C   0  0  0  0  0  0  0  0  0  0  0  0
   25.2620  -27.9770  -22.3180 N   0  0  0  0  0  0  0  0  0  0  0  0
   26.8490  -29.4360  -22.9610 O   0  0  0  0  0  0  0  0  0  0  0  0
   24.2520  -27.9260  -22.2530 H   0  0  0  0  0  0  0  0  0  0  0  0
   25.2950  -32.1570  -20.0950 C   0  0  0  0  0  3  0  0  0  0  0  0
   25.8420  -31.2480  -21.0020 C   0  0  0  0  0  3  0  0  0  0  0  0
   23.9390  -32.0550  -19.7600 C   0  0  0  0  0  3  0  0  0  0  0  0
   23.6350  -30.2520  -21.3590 C   0  0  0  0  0  3  0  0  0  0  0  0
   25.0400  -30.2660  -21.6270 C   0  0  0  0  0  0  0  0  0  0  0  0
   23.0760  -31.1240  -20.3810 C   0  0  0  0  0  0  0  0  0  0  0  0
   21.5800  -31.0780  -19.9950 C   0  0  0  0  0  2  0  0  0  0  0  0
   20.8720  -31.5630  -17.5270 C   0  0  0  0  0  0  0  0  0  0  0  0
   20.3770  -31.0530  -16.5160 O   0  0  0  0  0  0  0  0  0  0  0  0
   21.2340  -30.7760  -18.5780 N   0  0  0  0  0  0  0  0  0  0  0  0
   21.1140  -29.7840  -18.3910 H   0  0  0  0  0  0  0  0  0  0  0  0
   21.1450  -33.0830  -17.5310 C   0  0  0  0  0  2  0  0  0  0  0  0
   21.5150  -33.6790  -16.1310 C   0  0  0  0  0  3  0  0  0  0  0  0
   22.8140  -33.1160  -15.7320 N   0  0  0  0  0  0  0  0  0  0  0  0
   21.5800  -35.2050  -16.0960 C   0  0  0  0  0  0  0  0  0  0  0  0
   21.4000  -36.0240  -17.1420 N   0  0  0  0  0  0  0  0  0  0  0  0
   21.6330  -37.2990  -16.6640 N   0  0  0  0  0  0  0  0  0  0  0  0
   21.9380  -37.1590  -15.3730 C   0  0  0  0  0  0  0  0  0  0  0  0
   22.3210  -38.3100  -14.4950 C   0  0  0  0  0  1  0  0  0  0  0  0
   21.8830  -35.8740  -14.9590 N   0  0  0  0  0  0  0  0  0  0  0  0
   22.0810  -35.3220  -13.6770 C   0  0  0  0  0  0  0  0  0  0  0  0
   21.5500  -36.0280  -12.1760 S   0  0  0  0  0  0  0  0  0  0  0  0
   22.1140  -34.6530  -11.2750 C   0  0  0  0  0  0  0  0  0  0  0  0
   21.9210  -34.6200   -9.7890 C   0  0  0  0  0  1  0  0  0  0  0  0
   22.6690  -33.6950  -12.0940 C   0  0  0  0  0  0  0  0  0  0  0  0
   23.1510  -32.3720  -11.5550 C   0  0  0  0  0  1  0  0  0  0  0  0
   22.6820  -34.0990  -13.4780 C   0  0  0  0  0  0  0  0  0  0  0  0
   23.3120  -33.2830  -14.5680 C   0  0  0  0  0  0  0  0  0  0  0  0
   24.6400  -32.6780  -14.3130 C   0  0  0  0  0  0  0  0  0  0  0  0
   25.6450  -33.4380  -13.6740 C   0  0  0  0  0  3  0  0  0  0  0  0
   26.9000  -32.8730  -13.3860 C   0  0  0  0  0  3  0  0  0  0  0  0
   27.1520  -31.5380  -13.7360 C   0  0  0  0  0  0  0  0  0  0  0  0
   28.6800  -30.8060  -13.4180 Cl  0  0  0  0  0  0  0  0  0  0  0  0
   26.1520  -30.7680  -14.3310 C   0  0  0  0  0  3  0  0  0  0  0  0
   24.9030  -31.3320  -14.6550 C   0  0  0  0  0  3  0  0  0  0  0  0
  1  2  1  0
  2  4  1  0
  3  4  1  0
  4 10  1  0
  5  1  1  0
  5  3  1  0
  6  1  2  0
  7 13  1  0
  7  8  1  0
  8  9  2  0
 10 12  1  0
 10  8  1  0
 11  7  1  0
 13 19  1  0
 14 22  1  0
 14 15  1  0
 15 16  1  0
 16 39  1  0
 17 16  1  0
 18 17  1  0
 18 14  1  0
 19 18  1  0
 20 19  2  0
 21 24  1  0
 22 21  1  0
 23 22  2  0
 25 31  1  0
 25 21  1  0
 26 37  1  0
 26 27  1  0
 28 27  2  0
 29 26  2  0
 30 29  1  0
 30 31  2  0
 31 28  1  0
 32 33  1  0
 33 37  2  0
 33 34  1  0
 34 35  1  0
 36 35  1  0
 37 36  1  0
 38 34  1  0
 40 39  1  0
 41 44  1  1
 41 13  1  0
 42 41  1  0
 43 41  1  0
 45  5  1  0
 46 45  1  0
 47 48  1  0
 47 55  1  0
 48 50  1  0
 48 46  1  0
 49 47  2  0
 51 53  1  0
 52 51  2  0
 54 56  1  0
 55 54  2  0
 55 52  1  0
 56 57  1  0
 56 53  2  0
 57 60  1  0
 58 59  2  0
 60 61  1  0
 60 58  1  0
 62 58  1  0
 63 62  1  0
 63 65  1  0
 63 64  1  0
 64 78  2  0
 65 70  1  0
 66 67  1  0
 66 65  2  0
 67 68  2  0
 68 70  1  0
 68 69  1  0
 70 71  1  0
 71 77  2  0
 71 72  1  0
 72 73  1  0
 73 74  1  0
 75 76  1  0
 75 73  2  0
 77 75  1  0
 78 79  1  0
 78 77  1  0
 79 80  1  0
 80 81  2  0
 82 83  1  0
 82 81  1  0
 84 82  2  0
 85 84  1  0
 85 79  2  0
M  ISO  4   8 101  10 101  58 100  60 100
M  END
>  <TORSDO>  (118) 
F 18

>  <SCORE>  (118) 
29.039

>  <name>  (118) 
117

>  <ligand_id>  (118) 
117

>  <original_smiles>  (118) 
[H]OC1([H])C([H])([H])N(C(=O)C([H])(N([H])C(=O)N([H])C2([H])C([H])([H])C(=O)N(C([H])([H])C([H])([H])N([H])C(=O)c3c([H])c([H])c([H])c(C([H])([H])N([H])C(=O)C([H])([H])C4([H])N=C(c5c([H])c([H])c(Cl)c([H])c5[H])c5c(sc(C([H])([H])[H])c5C([H])([H])[H])-n5c(C([H])([H])[H])nnc54)c3[H])C2([H])[H])C(C([H])([H])[H])(C([H])([H])[H])C([H])([H])[H])C([H])(C(=O)N([H])C([H])([H])c2c([H])c([H])c(C3=C(C([H])([H])[H])N([H])C([H])([H])S3)c([H])c2[H])C1([H])[H]

>  <smiles>  (118) 
[H]OC1([H])C([H])([H])N(C(=O)C([H])(N([H])C(=O)N([H])C2([H])C([H])([H])C(=O)N(C([H])([H])C([H])([H])N([H])C(=O)c3c([H])c([H])c([H])c(C([H])([H])N([H])C(=O)C([H])([H])C4([H])N=C(c5c([H])c([H])c(Cl)c([H])c5[H])c5c(sc(C([H])([H])[H])c5C([H])([H])[H])-n5c(C([H])([H])[H])nnc54)c3[H])C2([H])[H])C(C([H])([H])[H])(C([H])([H])[H])C([H])([H])[H])C([H])(C(=O)N([H])C([H])([H])c2c([H])c([H])c(C3=C(C([H])([H])[H])N([H])C([H])([H])S3)c([H])c2[H])C1([H])[H]

$$$$
118:0:0
     RDKit          3D

 81 88  0  0  1  0  0  0  0  0999 V2000
   27.8400  -26.7630  -18.3290 C   0  0  0  0  0  3  0  0  0  0  0  0
   26.9910  -27.8320  -18.1560 C   0  0  0  0  0  0  0  0  0  0  0  0
   28.3050  -27.6430  -16.3500 C   0  0  0  0  0  3  0  0  0  0  0  0
   28.9130  -27.9060  -15.0090 C   0  0  0  0  0  1  0  0  0  0  0  0
   28.6360  -26.6690  -17.2110 N   0  0  0  0  0  0  0  0  0  0  0  0
   27.3140  -28.3480  -16.9240 N   0  0  0  0  0  0  0  0  0  0  0  0
   26.8780  -29.1660  -16.5210 H   0  0  0  0  0  0  0  0  0  0  0  0
   29.6980  -25.6560  -16.9470 C   0  0  0  0  0  2  0  0  0  0  0  0
   29.3230  -24.5710  -15.9030 C   0  0  0  0  0  2  0  0  0  0  0  0
   25.8850  -24.5950  -15.0560 N   0  0  0  0  0  0  0  0  0  0  0  0
   27.1280  -24.4970  -14.6360 C   0  0  0  0  0  0  0  0  0  0  0  0
   27.4840  -24.2410  -13.4860 O   0  0  0  0  0  0  0  0  0  0  0  0
   27.8860  -24.5570  -15.7250 N   0  0  0  0  0  0  0  0  0  0  0  0
   25.3930  -25.3910  -14.6620 H   0  0  0  0  0  0  0  0  0  0  0  0
   27.3450  -24.6860  -16.5660 H   0  0  0  0  0  0  0  0  0  0  0  0
   24.9610  -23.4740  -15.0080 C   0  0  0  0  0  3  0  0  0  0  0  0
   21.7590  -23.8380  -12.7890 C   0  0  0  0  0  3  0  0  0  0  0  0
   21.1910  -22.6120  -12.0590 C   0  0  0  0  0  2  0  0  0  0  0  0
   22.4030  -21.7440  -11.7890 C   0  0  0  0  0  3  0  0  0  0  0  0
   23.3570  -22.0370  -12.9440 C   0  0  0  0  0  2  0  0  0  0  0  0
   22.9730  -23.3540  -13.4680 N   0  0  0  0  0  0  0  0  0  0  0  0
   23.7020  -24.0800  -14.3470 C   0  0  0  0  0  0  0  0  0  0  0  0
   23.4330  -25.2600  -14.6030 O   0  0  0  0  0  0  0  0  0  0  0  0
   19.9390  -25.4080  -13.1810 N   0  0  0  0  0  0  0  0  0  0  0  0
   20.6840  -24.4360  -13.7120 C   0  0  0  0  0  0  0  0  0  0  0  0
   20.5040  -23.9900  -14.8470 O   0  0  0  0  0  0  0  0  0  0  0  0
   20.1760  -25.7300  -12.2530 H   0  0  0  0  0  0  0  0  0  0  0  0
   18.7420  -25.9720  -13.7900 C   0  0  0  0  0  2  0  0  0  0  0  0
   15.1570  -23.6460  -12.9620 C   0  0  0  0  0  0  0  0  0  0  0  0
   16.1470  -23.7990  -11.9690 C   0  0  0  0  0  3  0  0  0  0  0  0
   17.3080  -24.5470  -12.2320 C   0  0  0  0  0  3  0  0  0  0  0  0
   15.3430  -24.2460  -14.2250 C   0  0  0  0  0  3  0  0  0  0  0  0
   16.5060  -24.9940  -14.4900 C   0  0  0  0  0  3  0  0  0  0  0  0
   17.4940  -25.1500  -13.4960 C   0  0  0  0  0  0  0  0  0  0  0  0
   12.1230  -24.3080  -13.8360 C   0  0  0  0  0  1  0  0  0  0  0  0
   12.6490  -23.1570  -13.0010 C   0  0  0  0  0  0  0  0  0  0  0  0
   11.7320  -22.2730  -12.4720 N   0  0  0  0  0  0  0  0  0  0  0  0
   12.2390  -21.3140  -11.4950 C   0  0  0  0  0  2  0  0  0  0  0  0
   14.0380  -21.4640  -11.6660 S   0  0  0  0  0  0  0  0  0  0  0  0
   13.9160  -22.9260  -12.6320 C   0  0  0  0  0  0  0  0  0  0  0  0
   10.7280  -22.3900  -12.5670 H   0  0  0  0  0  0  0  0  0  0  0  0
   23.0260  -22.1230  -10.5740 O   0  0  0  0  0  0  0  0  0  0  0  0
   23.2900  -23.0350  -10.6450 H   0  0  0  0  0  0  0  0  0  0  0  0
   24.7570  -22.8440  -16.4340 C   0  0  1  0  0  0  0  0  0  0  0  0
   26.0400  -22.1170  -16.9070 C   0  0  0  0  0  1  0  0  0  0  0  0
   24.3870  -23.9010  -17.4990 C   0  0  0  0  0  1  0  0  0  0  0  0
   23.6350  -21.7850  -16.3960 C   0  0  0  0  0  1  0  0  0  0  0  0
   25.9520  -28.4080  -19.0930 C   0  0  0  0  0  2  0  0  0  0  0  0
   23.7850  -29.0840  -18.0480 C   0  0  0  0  0  0  0  0  0  0  0  0
   24.9940  -29.3870  -18.5540 N   0  0  0  0  0  0  0  0  0  0  0  0
   23.4800  -27.9350  -17.7220 O   0  0  0  0  0  0  0  0  0  0  0  0
   25.1340  -30.3470  -18.8360 H   0  0  0  0  0  0  0  0  0  0  0  0
   22.7490  -30.2240  -17.9220 C   0  0  0  0  0  2  0  0  0  0  0  0
   20.6630  -30.5450  -16.4970 C   0  0  0  0  0  0  0  0  0  0  0  0
   20.0600  -30.0680  -15.5360 O   0  0  0  0  0  0  0  0  0  0  0  0
   21.5830  -29.7930  -17.1360 N   0  0  0  0  0  0  0  0  0  0  0  0
   21.6290  -28.8130  -16.8800 H   0  0  0  0  0  0  0  0  0  0  0  0
   20.4640  -32.0340  -16.8480 C   0  0  0  0  0  2  0  0  0  0  0  0
   21.0190  -32.9510  -15.7280 C   0  0  0  0  0  3  0  0  0  0  0  0
   22.4040  -32.5500  -15.4870 N   0  0  0  0  0  0  0  0  0  0  0  0
   20.9690  -34.4410  -16.0180 C   0  0  0  0  0  0  0  0  0  0  0  0
   20.5830  -35.0220  -17.1610 N   0  0  0  0  0  0  0  0  0  0  0  0
   20.7900  -36.3760  -16.9800 N   0  0  0  0  0  0  0  0  0  0  0  0
   21.2940  -36.5080  -15.7480 C   0  0  0  0  0  0  0  0  0  0  0  0
   21.7260  -37.8230  -15.1720 C   0  0  0  0  0  1  0  0  0  0  0  0
   21.3930  -35.3310  -15.0960 N   0  0  0  0  0  0  0  0  0  0  0  0
   21.8160  -35.0440  -13.7790 C   0  0  0  0  0  0  0  0  0  0  0  0
   21.4430  -35.9890  -12.3720 S   0  0  0  0  0  0  0  0  0  0  0  0
   22.2260  -34.8330  -11.3300 C   0  0  0  0  0  0  0  0  0  0  0  0
   22.2560  -35.0740   -9.8540 C   0  0  0  0  0  1  0  0  0  0  0  0
   22.7300  -33.7620  -12.0360 C   0  0  0  0  0  0  0  0  0  0  0  0
   23.4020  -32.5920  -11.3670 C   0  0  0  0  0  1  0  0  0  0  0  0
   22.5260  -33.9090  -13.4540 C   0  0  0  0  0  0  0  0  0  0  0  0
   23.0540  -32.9410  -14.4640 C   0  0  0  0  0  0  0  0  0  0  0  0
   24.4280  -32.4220  -14.3080 C   0  0  0  0  0  0  0  0  0  0  0  0
   25.4640  -33.3090  -13.9460 C   0  0  0  0  0  3  0  0  0  0  0  0
   26.7710  -32.8270  -13.7670 C   0  0  0  0  0  3  0  0  0  0  0  0
   27.0430  -31.4590  -13.9410 C   0  0  0  0  0  0  0  0  0  0  0  0
   28.6460  -30.8900  -13.6810 Cl  0  0  0  0  0  0  0  0  0  0  0  0
   26.0120  -30.5690  -14.2990 C   0  0  0  0  0  3  0  0  0  0  0  0
   24.7050  -31.0510  -14.4970 C   0  0  0  0  0  3  0  0  0  0  0  0
  1  2  2  0
  1  5  1  0
  2  6  1  0
  3  4  1  0
  5  8  1  0
  5  3  1  0
  6  7  1  0
  6  3  1  0
  8  9  1  0
  9 13  1  0
 10 16  1  0
 10 14  1  0
 10 11  1  0
 11 12  2  0
 13 11  1  0
 15 13  1  0
 16 22  1  0
 17 25  1  0
 17 18  1  0
 18 19  1  0
 19 42  1  0
 20 19  1  0
 21 20  1  0
 21 17  1  0
 22 21  1  0
 23 22  2  0
 24 27  1  0
 25 24  1  0
 26 25  2  0
 28 34  1  0
 28 24  1  0
 29 40  1  0
 29 30  1  0
 31 30  2  0
 32 29  2  0
 33 32  1  0
 33 34  2  0
 34 31  1  0
 35 36  1  0
 36 40  2  0
 36 37  1  0
 37 38  1  0
 39 38  1  0
 40 39  1  0
 41 37  1  0
 43 42  1  0
 44 47  1  1
 44 16  1  0
 45 44  1  0
 46 44  1  0
 48 50  1  0
 48  2  1  0
 49 53  1  0
 49 51  2  0
 50 49  1  0
 52 50  1  0
 53 56  1  0
 54 55  2  0
 56 57  1  0
 56 54  1  0
 58 54  1  0
 59 58  1  0
 59 60  1  0
 60 74  2  0
 61 59  1  0
 61 66  1  0
 62 63  1  0
 62 61  2  0
 63 64  2  0
 64 65  1  0
 64 66  1  0
 66 67  1  0
 67 73  2  0
 67 68  1  0
 68 69  1  0
 69 70  1  0
 71 72  1  0
 71 69  2  0
 73 71  1  0
 74 75  1  0
 74 73  1  0
 75 76  1  0
 76 77  2  0
 78 77  1  0
 78 79  1  0
 80 78  2  0
 81 75  2  0
 81 80  1  0
M  ISO  4  11 101  13 101  54 100  56 100
M  END
>  <TORSDO>  (119) 
F 18

>  <SCORE>  (119) 
-10.403

>  <name>  (119) 
118

>  <ligand_id>  (119) 
118

>  <original_smiles>  (119) 
[H]OC1([H])C([H])([H])N(C(=O)C([H])(N([H])C(=O)N([H])C([H])([H])C([H])([H])n2c([H])c(C([H])([H])N([H])C(=O)C([H])([H])N([H])C(=O)C([H])([H])C3([H])N=C(c4c([H])c([H])c(Cl)c([H])c4[H])c4c(sc(C([H])([H])[H])c4C([H])([H])[H])-n4c(C([H])([H])[H])nnc43)[n+]([H])c2C([H])([H])[H])C(C([H])([H])[H])(C([H])([H])[H])C([H])([H])[H])C([H])(C(=O)N([H])C([H])([H])c2c([H])c([H])c(C3=C(C([H])([H])[H])N([H])C([H])([H])S3)c([H])c2[H])C1([H])[H]

>  <smiles>  (119) 
[H]OC1([H])C([H])([H])N(C(=O)C([H])(N([H])C(=O)N([H])C([H])([H])C([H])([H])n2c([H])c(C([H])([H])N([H])C(=O)C([H])([H])N([H])C(=O)C([H])([H])C3([H])N=C(c4c([H])c([H])c(Cl)c([H])c4[H])c4c(sc(C([H])([H])[H])c4C([H])([H])[H])-n4c(C([H])([H])[H])nnc43)[n+]([H])c2C([H])([H])[H])C(C([H])([H])[H])(C([H])([H])[H])C([H])([H])[H])C([H])(C(=O)N([H])C([H])([H])c2c([H])c([H])c(C3=C(C([H])([H])[H])N([H])C([H])([H])S3)c([H])c2[H])C1([H])[H]

$$$$
119:0:0
     RDKit          3D

 79 87  0  0  1  0  0  0  0  0999 V2000
   26.1140  -27.3310  -17.7940 C   0  0  0  0  0  3  0  0  0  0  0  0
   25.8500  -27.7820  -16.5500 C   0  0  0  0  0  3  0  0  0  0  0  0
   24.3680  -28.1030  -21.6190 C   0  0  0  0  0  3  0  0  0  0  0  0
   25.6640  -27.6440  -21.3830 C   0  0  0  0  0  3  0  0  0  0  0  0
   23.5240  -28.3330  -20.5250 C   0  0  0  0  0  0  0  0  0  0  0  0
   24.0130  -28.0930  -19.2080 C   0  0  0  0  0  0  0  0  0  0  0  0
   25.3460  -27.5770  -19.0600 C   0  0  0  0  0  0  0  0  0  0  0  0
   22.1100  -28.8390  -20.8060 C   0  0  0  0  0  2  0  0  0  0  0  0
   23.1100  -28.4290  -18.0180 C   0  0  0  0  0  2  0  0  0  0  0  0
   21.4340  -29.4810  -19.5900 C   0  0  0  0  0  2  0  0  0  0  0  0
   21.6110  -28.6100  -18.3460 C   0  0  0  0  0  3  0  0  0  0  0  0
   26.1280  -27.3780  -20.1460 N   0  0  0  0  0  0  0  0  0  0  0  0
   20.6140  -30.0980  -16.4230 C   0  0  0  0  0  0  0  0  0  0  0  0
   20.2870  -29.9580  -15.2430 O   0  0  0  0  0  0  0  0  0  0  0  0
   20.8540  -28.9740  -17.1320 N   0  0  0  0  0  0  0  0  0  0  0  0
   20.6140  -28.1550  -16.5920 H   0  0  0  0  0  0  0  0  0  0  0  0
   20.7480  -31.5370  -16.9700 C   0  0  0  0  0  2  0  0  0  0  0  0
   21.1940  -32.5450  -15.8790 C   0  0  0  0  0  3  0  0  0  0  0  0
   22.5930  -32.2860  -15.5490 N   0  0  0  0  0  0  0  0  0  0  0  0
   21.0230  -34.0040  -16.2640 C   0  0  0  0  0  0  0  0  0  0  0  0
   20.6650  -34.4800  -17.4650 N   0  0  0  0  0  0  0  0  0  0  0  0
   20.7330  -35.8570  -17.3590 N   0  0  0  0  0  0  0  0  0  0  0  0
   21.1350  -36.1070  -16.1080 C   0  0  0  0  0  0  0  0  0  0  0  0
   21.3980  -37.4910  -15.5940 C   0  0  0  0  0  1  0  0  0  0  0  0
   21.3030  -34.9820  -15.3800 N   0  0  0  0  0  0  0  0  0  0  0  0
   21.6660  -34.8090  -14.0280 C   0  0  0  0  0  0  0  0  0  0  0  0
   21.1110  -35.7820  -12.7040 S   0  0  0  0  0  0  0  0  0  0  0  0
   21.9420  -34.7740  -11.5550 C   0  0  0  0  0  0  0  0  0  0  0  0
   21.8630  -35.1060  -10.1000 C   0  0  0  0  0  1  0  0  0  0  0  0
   22.5930  -33.7200  -12.1640 C   0  0  0  0  0  0  0  0  0  0  0  0
   23.3280  -32.6570  -11.3910 C   0  0  0  0  0  1  0  0  0  0  0  0
   22.4610  -33.7700  -13.5990 C   0  0  0  0  0  0  0  0  0  0  0  0
   23.1430  -32.8090  -14.5190 C   0  0  0  0  0  0  0  0  0  0  0  0
   24.5520  -32.4650  -14.2500 C   0  0  0  0  0  0  0  0  0  0  0  0
   25.4580  -33.4750  -13.8550 C   0  0  0  0  0  3  0  0  0  0  0  0
   26.7980  -33.1570  -13.5590 C   0  0  0  0  0  3  0  0  0  0  0  0
   27.2480  -31.8360  -13.7130 C   0  0  0  0  0  0  0  0  0  0  0  0
   28.8800  -31.3840  -13.3860 Cl  0  0  0  0  0  0  0  0  0  0  0  0
   26.3590  -30.8620  -14.1640 C   0  0  0  0  0  3  0  0  0  0  0  0
   25.0030  -31.1410  -14.3920 C   0  0  0  0  0  3  0  0  0  0  0  0
   26.6560  -27.6840  -15.2410 C   0  0  0  0  0  2  0  0  0  0  0  0
   26.5560  -24.9620  -15.5470 N   0  0  0  0  0  0  0  0  0  0  0  0
   27.4430  -25.4680  -14.7110 C   0  0  0  0  0  0  0  0  0  0  0  0
   27.9040  -24.8830  -13.7240 O   0  0  0  0  0  0  0  0  0  0  0  0
   27.7490  -26.7030  -15.1230 N   0  0  0  0  0  0  0  0  0  0  0  0
   26.2680  -25.5940  -16.2800 H   0  0  0  0  0  0  0  0  0  0  0  0
   28.5970  -27.0900  -14.7280 H   0  0  0  0  0  0  0  0  0  0  0  0
   25.6490  -23.8540  -15.3670 C   0  0  0  0  0  3  0  0  0  0  0  0
   22.2590  -24.2370  -13.4200 C   0  0  0  0  0  3  0  0  0  0  0  0
   21.7190  -23.0540  -12.6010 C   0  0  0  0  0  2  0  0  0  0  0  0
   22.9600  -22.2960  -12.1760 C   0  0  0  0  0  3  0  0  0  0  0  0
   23.9750  -22.5440  -13.2910 C   0  0  0  0  0  2  0  0  0  0  0  0
   23.5480  -23.7730  -13.9660 N   0  0  0  0  0  0  0  0  0  0  0  0
   24.2970  -24.4500  -14.8680 C   0  0  0  0  0  0  0  0  0  0  0  0
   23.9490  -25.5600  -15.2870 O   0  0  0  0  0  0  0  0  0  0  0  0
   20.3880  -25.6530  -14.0860 N   0  0  0  0  0  0  0  0  0  0  0  0
   21.2050  -24.6630  -14.4580 C   0  0  0  0  0  0  0  0  0  0  0  0
   21.1020  -24.0710  -15.5350 O   0  0  0  0  0  0  0  0  0  0  0  0
   20.5570  -26.0970  -13.1940 H   0  0  0  0  0  0  0  0  0  0  0  0
   19.2060  -26.0840  -14.8200 C   0  0  0  0  0  2  0  0  0  0  0  0
   15.5830  -24.0230  -13.5660 C   0  0  0  0  0  0  0  0  0  0  0  0
   16.5640  -24.3700  -12.6150 C   0  0  0  0  0  3  0  0  0  0  0  0
   17.7380  -25.0310  -13.0170 C   0  0  0  0  0  3  0  0  0  0  0  0
   15.7870  -24.3420  -14.9250 C   0  0  0  0  0  3  0  0  0  0  0  0
   16.9630  -25.0050  -15.3270 C   0  0  0  0  0  3  0  0  0  0  0  0
   17.9430  -25.3550  -14.3760 C   0  0  0  0  0  0  0  0  0  0  0  0
   12.5530  -24.5940  -14.5240 C   0  0  0  0  0  1  0  0  0  0  0  0
   13.0620  -23.5930  -13.5040 C   0  0  0  0  0  0  0  0  0  0  0  0
   12.1330  -22.8370  -12.8210 N   0  0  0  0  0  0  0  0  0  0  0  0
   12.6280  -22.0530  -11.6980 C   0  0  0  0  0  2  0  0  0  0  0  0
   14.4290  -22.1230  -11.9080 S   0  0  0  0  0  0  0  0  0  0  0  0
   14.3290  -23.4000  -13.1090 C   0  0  0  0  0  0  0  0  0  0  0  0
   11.1310  -22.9600  -12.9300 H   0  0  0  0  0  0  0  0  0  0  0  0
   23.4690  -22.8290  -10.9620 O   0  0  0  0  0  0  0  0  0  0  0  0
   23.6730  -23.7490  -11.0980 H   0  0  0  0  0  0  0  0  0  0  0  0
   25.5510  -23.1480  -16.7660 C   0  0  1  0  0  0  0  0  0  0  0  0
   26.9300  -22.5280  -17.0900 C   0  0  0  0  0  1  0  0  0  0  0  0
   25.1590  -24.0990  -17.9290 C   0  0  0  0  0  1  0  0  0  0  0  0
   24.5290  -21.9940  -16.7390 C   0  0  0  0  0  1  0  0  0  0  0  0
  1  2  2  0
  2 41  1  0
  3  4  2  0
  3  5  1  0
  4 12  1  0
  5  6  2  0
  6  7  1  0
  6  9  1  0
  7  1  1  0
  8  5  1  0
  8 10  1  0
 10 11  1  0
 11  9  1  0
 11 15  1  0
 12  7  2  0
 13 14  2  0
 15 16  1  0
 15 13  1  0
 17 13  1  0
 18 17  1  0
 18 19  1  0
 19 33  2  0
 20 18  1  0
 20 25  1  0
 21 22  1  0
 21 20  2  0
 22 23  2  0
 23 24  1  0
 23 25  1  0
 25 26  1  0
 26 32  2  0
 26 27  1  0
 27 28  1  0
 28 29  1  0
 30 28  2  0
 30 31  1  0
 32 30  1  0
 33 34  1  0
 33 32  1  0
 34 35  1  0
 35 36  2  0
 37 36  1  0
 37 38  1  0
 39 37  2  0
 40 34  2  0
 40 39  1  0
 41 45  1  0
 42 48  1  0
 42 43  1  0
 43 44  2  0
 45 47  1  0
 45 43  1  0
 46 42  1  0
 48 54  1  0
 49 57  1  0
 49 50  1  0
 50 51  1  0
 51 74  1  0
 52 51  1  0
 53 49  1  0
 53 52  1  0
 54 53  1  0
 55 54  2  0
 56 59  1  0
 57 56  1  0
 58 57  2  0
 60 66  1  0
 60 56  1  0
 61 72  1  0
 61 62  1  0
 63 62  2  0
 64 61  2  0
 65 64  1  0
 65 66  2  0
 66 63  1  0
 67 68  1  0
 68 72  2  0
 68 69  1  0
 69 70  1  0
 71 70  1  0
 72 71  1  0
 73 69  1  0
 75 74  1  0
 76 79  1  1
 76 48  1  0
 77 76  1  0
 78 76  1  0
M  ISO  4  13 100  15 100  43 101  45 101
M  END
>  <TORSDO>  (120) 
F 15

>  <SCORE>  (120) 
-12.541

>  <name>  (120) 
119

>  <ligand_id>  (120) 
119

>  <original_smiles>  (120) 
[H]OC1([H])C([H])([H])N(C(=O)C([H])(N([H])C(=O)N([H])C([H])([H])C([H])=C([H])c2nc([H])c([H])c3c2C([H])([H])C([H])(N([H])C(=O)C([H])([H])C2([H])N=C(c4c([H])c([H])c(Cl)c([H])c4[H])c4c(sc(C([H])([H])[H])c4C([H])([H])[H])-n4c(C([H])([H])[H])nnc42)C([H])([H])C3([H])[H])C(C([H])([H])[H])(C([H])([H])[H])C([H])([H])[H])C([H])(C(=O)N([H])C([H])([H])c2c([H])c([H])c(C3=C(C([H])([H])[H])N([H])C([H])([H])S3)c([H])c2[H])C1([H])[H]

>  <smiles>  (120) 
[H]OC1([H])C([H])([H])N(C(=O)C([H])(N([H])C(=O)N([H])C([H])([H])C([H])=C([H])c2nc([H])c([H])c3c2C([H])([H])C([H])(N([H])C(=O)C([H])([H])C2([H])N=C(c4c([H])c([H])c(Cl)c([H])c4[H])c4c(sc(C([H])([H])[H])c4C([H])([H])[H])-n4c(C([H])([H])[H])nnc42)C([H])([H])C3([H])[H])C(C([H])([H])[H])(C([H])([H])[H])C([H])([H])[H])C([H])(C(=O)N([H])C([H])([H])c2c([H])c([H])c(C3=C(C([H])([H])[H])N([H])C([H])([H])S3)c([H])c2[H])C1([H])[H]

$$$$
120:0:0
     RDKit          3D

 73 79  0  0  1  0  0  0  0  0999 V2000
   25.8450  -24.7650  -15.4530 N   0  0  0  0  0  0  0  0  0  0  0  0
   26.6900  -25.3520  -14.6160 C   0  0  0  0  0  0  0  0  0  0  0  0
   27.2280  -24.7560  -13.6720 O   0  0  0  0  0  0  0  0  0  0  0  0
   26.7900  -26.6820  -14.8720 N   0  0  0  0  0  0  0  0  0  0  0  0
   25.4950  -25.3870  -16.1660 H   0  0  0  0  0  0  0  0  0  0  0  0
   27.4520  -27.2380  -14.3460 H   0  0  0  0  0  0  0  0  0  0  0  0
   24.9780  -27.7100  -15.9760 N   0  0  0  0  0  0  0  0  0  0  0  0
   26.1820  -27.3340  -16.0160 N   0  0  0  0  0  0  0  0  0  0  0  0
   24.3200  -27.9720  -17.3090 C   0  0  0  0  0  3  0  0  0  0  0  0
   22.8810  -26.9110  -18.9100 C   0  0  0  0  0  1  0  0  0  0  0  0
   23.2960  -27.0100  -17.5500 O   0  0  0  0  0  0  0  0  0  0  0  0
   23.7410  -29.3900  -17.2920 C   0  0  0  0  0  3  0  0  0  0  0  0
   22.4750  -29.6560  -17.1920 N   0  0  0  0  0  0  0  0  0  0  0  0
   20.9740  -31.5670  -17.0010 C   0  0  0  0  0  0  0  0  0  0  0  0
   20.1530  -31.0220  -16.2590 O   0  0  0  0  0  0  0  0  0  0  0  0
   22.0720  -30.9360  -17.4760 N   0  0  0  0  0  0  0  0  0  0  0  0
   22.7670  -31.5140  -17.9340 H   0  0  0  0  0  0  0  0  0  0  0  0
   20.9530  -33.0910  -17.1990 C   0  0  0  0  0  2  0  0  0  0  0  0
   21.4620  -33.7870  -15.9080 C   0  0  0  0  0  3  0  0  0  0  0  0
   22.7940  -33.2730  -15.5840 N   0  0  0  0  0  0  0  0  0  0  0  0
   21.5120  -35.3030  -15.9510 C   0  0  0  0  0  0  0  0  0  0  0  0
   21.3340  -36.0860  -17.0210 N   0  0  0  0  0  0  0  0  0  0  0  0
   21.5790  -37.3740  -16.5850 N   0  0  0  0  0  0  0  0  0  0  0  0
   21.8970  -37.2680  -15.2900 C   0  0  0  0  0  0  0  0  0  0  0  0
   22.3020  -38.4350  -14.4420 C   0  0  0  0  0  1  0  0  0  0  0  0
   21.8450  -35.9950  -14.8410 N   0  0  0  0  0  0  0  0  0  0  0  0
   22.0680  -35.4630  -13.5530 C   0  0  0  0  0  0  0  0  0  0  0  0
   21.5370  -36.1780  -12.0660 S   0  0  0  0  0  0  0  0  0  0  0  0
   22.1200  -34.8160  -11.1500 C   0  0  0  0  0  0  0  0  0  0  0  0
   21.9550  -34.8040   -9.6640 C   0  0  0  0  0  1  0  0  0  0  0  0
   22.6780  -33.8490  -11.9570 C   0  0  0  0  0  0  0  0  0  0  0  0
   23.1930  -32.5380  -11.4180 C   0  0  0  0  0  1  0  0  0  0  0  0
   22.6860  -34.2490  -13.3410 C   0  0  0  0  0  0  0  0  0  0  0  0
   23.3130  -33.4350  -14.4290 C   0  0  0  0  0  0  0  0  0  0  0  0
   24.6260  -32.8040  -14.1830 C   0  0  0  0  0  0  0  0  0  0  0  0
   25.6650  -33.5480  -13.5850 C   0  0  0  0  0  3  0  0  0  0  0  0
   26.9090  -32.9400  -13.3310 C   0  0  0  0  0  3  0  0  0  0  0  0
   27.1190  -31.5930  -13.6790 C   0  0  0  0  0  0  0  0  0  0  0  0
   28.6400  -30.8470  -13.3670 Cl  0  0  0  0  0  0  0  0  0  0  0  0
   26.0840  -30.8500  -14.2760 C   0  0  0  0  0  3  0  0  0  0  0  0
   24.8380  -31.4530  -14.5230 C   0  0  0  0  0  3  0  0  0  0  0  0
   24.9600  -23.6420  -15.1970 C   0  0  0  0  0  3  0  0  0  0  0  0
   21.8490  -23.9800  -12.8060 C   0  0  0  0  0  3  0  0  0  0  0  0
   21.4070  -22.7780  -11.9560 C   0  0  0  0  0  2  0  0  0  0  0  0
   22.6840  -22.0000  -11.7170 C   0  0  0  0  0  3  0  0  0  0  0  0
   23.5490  -22.2700  -12.9490 C   0  0  0  0  0  2  0  0  0  0  0  0
   23.0520  -23.5210  -13.5320 N   0  0  0  0  0  0  0  0  0  0  0  0
   23.6850  -24.2240  -14.5050 C   0  0  0  0  0  0  0  0  0  0  0  0
   23.3030  -25.3530  -14.8270 O   0  0  0  0  0  0  0  0  0  0  0  0
   19.8720  -25.3690  -13.1470 N   0  0  0  0  0  0  0  0  0  0  0  0
   20.6720  -24.4410  -13.6850 C   0  0  0  0  0  0  0  0  0  0  0  0
   20.4640  -23.9270  -14.7850 O   0  0  0  0  0  0  0  0  0  0  0  0
   20.1280  -25.7510  -12.2470 H   0  0  0  0  0  0  0  0  0  0  0  0
   18.6000  -25.8040  -13.7070 C   0  0  0  0  0  2  0  0  0  0  0  0
   15.2810  -23.1960  -12.6420 C   0  0  0  0  0  0  0  0  0  0  0  0
   16.3220  -23.4290  -11.7200 C   0  0  0  0  0  3  0  0  0  0  0  0
   17.3970  -24.2690  -12.0620 C   0  0  0  0  0  3  0  0  0  0  0  0
   15.3280  -23.8090  -13.9130 C   0  0  0  0  0  3  0  0  0  0  0  0
   16.4050  -24.6480  -14.2540 C   0  0  0  0  0  3  0  0  0  0  0  0
   17.4440  -24.8840  -13.3310 C   0  0  0  0  0  0  0  0  0  0  0  0
   12.1400  -23.6630  -13.2210 C   0  0  0  0  0  1  0  0  0  0  0  0
   12.8190  -22.5270  -12.4810 C   0  0  0  0  0  0  0  0  0  0  0  0
   12.0180  -21.5610  -11.9060 N   0  0  0  0  0  0  0  0  0  0  0  0
   12.6760  -20.6150  -11.0130 C   0  0  0  0  0  2  0  0  0  0  0  0
   14.4370  -20.8970  -11.3390 S   0  0  0  0  0  0  0  0  0  0  0  0
   14.1270  -22.3770  -12.2330 C   0  0  0  0  0  0  0  0  0  0  0  0
   11.0030  -21.6040  -11.9150 H   0  0  0  0  0  0  0  0  0  0  0  0
   23.3510  -22.4910  -10.5660 O   0  0  0  0  0  0  0  0  0  0  0  0
   23.5440  -23.4130  -10.6980 H   0  0  0  0  0  0  0  0  0  0  0  0
   24.6820  -22.9630  -16.5870 C   0  0  1  0  0  0  0  0  0  0  0  0
   25.9900  -22.3150  -17.0930 C   0  0  0  0  0  1  0  0  0  0  0  0
   24.2010  -23.9490  -17.6710 C   0  0  0  0  0  1  0  0  0  0  0  0
   23.6280  -21.8450  -16.4790 C   0  0  0  0  0  1  0  0  0  0  0  0
  1 42  1  0
  1  2  1  0
  2  3  2  0
  4  2  1  0
  4  6  1  0
  5  1  1  0
  8  7  2  0
  8  4  1  0
  9 12  1  0
  9  7  1  0
 10 11  1  0
 11  9  1  0
 12 13  2  0
 14 15  2  0
 16 13  1  0
 16 14  1  0
 17 16  1  0
 18 14  1  0
 19 18  1  0
 19 20  1  0
 20 34  2  0
 21 19  1  0
 21 26  1  0
 22 23  1  0
 22 21  2  0
 23 24  2  0
 24 26  1  0
 24 25  1  0
 26 27  1  0
 27 33  2  0
 27 28  1  0
 28 29  1  0
 29 30  1  0
 31 32  1  0
 31 29  2  0
 33 31  1  0
 34 35  1  0
 34 33  1  0
 35 36  1  0
 36 37  2  0
 38 39  1  0
 38 37  1  0
 40 38  2  0
 41 40  1  0
 41 35  2  0
 42 48  1  0
 43 51  1  0
 43 44  1  0
 44 45  1  0
 45 68  1  0
 46 45  1  0
 47 46  1  0
 47 43  1  0
 48 47  1  0
 49 48  2  0
 50 53  1  0
 51 50  1  0
 52 51  2  0
 54 60  1  0
 54 50  1  0
 55 66  1  0
 55 56  1  0
 57 56  2  0
 58 55  2  0
 59 58  1  0
 59 60  2  0
 60 57  1  0
 61 62  1  0
 62 66  2  0
 62 63  1  0
 63 64  1  0
 65 64  1  0
 66 65  1  0
 67 63  1  0
 69 68  1  0
 70 73  1  1
 70 42  1  0
 71 70  1  0
 72 70  1  0
M  ISO  4   2 101   4 101  14 100  16 100
M  END
>  <TORSDO>  (121) 
F 16

>  <SCORE>  (121) 
-13.671

>  <name>  (121) 
120

>  <ligand_id>  (121) 
120

>  <original_smiles>  (121) 
[H]OC1([H])C([H])([H])N(C(=O)C([H])(N([H])C(=O)N([H])N=NC([H])(OC([H])([H])[H])C([H])=NN([H])C(=O)C([H])([H])C2([H])N=C(c3c([H])c([H])c(Cl)c([H])c3[H])c3c(sc(C([H])([H])[H])c3C([H])([H])[H])-n3c(C([H])([H])[H])nnc32)C(C([H])([H])[H])(C([H])([H])[H])C([H])([H])[H])C([H])(C(=O)N([H])C([H])([H])c2c([H])c([H])c(C3=C(C([H])([H])[H])N([H])C([H])([H])S3)c([H])c2[H])C1([H])[H]

>  <smiles>  (121) 
[H]OC1([H])C([H])([H])N(C(=O)C([H])(N([H])C(=O)N([H])N=NC([H])(OC([H])([H])[H])C([H])=NN([H])C(=O)C([H])([H])C2([H])N=C(c3c([H])c([H])c(Cl)c([H])c3[H])c3c(sc(C([H])([H])[H])c3C([H])([H])[H])-n3c(C([H])([H])[H])nnc32)C(C([H])([H])[H])(C([H])([H])[H])C([H])([H])[H])C([H])(C(=O)N([H])C([H])([H])c2c([H])c([H])c(C3=C(C([H])([H])[H])N([H])C([H])([H])S3)c([H])c2[H])C1([H])[H]

$$$$
121:0:0
     RDKit          3D

 79 85  0  0  1  0  0  0  0  0999 V2000
   25.8970  -24.5630  -15.3220 N   0  0  0  0  0  0  0  0  0  0  0  0
   26.9240  -24.8680  -14.5330 C   0  0  0  0  0  0  0  0  0  0  0  0
   27.1060  -24.3580  -13.4260 O   0  0  0  0  0  0  0  0  0  0  0  0
   27.9550  -26.7220  -15.9490 C   0  0  0  0  0  0  0  0  0  0  0  0
   27.9850  -25.6920  -15.0460 N   0  0  0  0  0  0  0  0  0  0  0  0
   29.0270  -27.5380  -15.9790 N   0  0  0  0  0  4  0  0  0  0  0  0
   25.8290  -25.0070  -16.2350 H   0  0  0  0  0  0  0  0  0  0  0  0
   28.8610  -25.6730  -14.5540 H   0  0  0  0  0  0  0  0  0  0  0  0
   29.9040  -27.3120  -15.5450 H   0  0  0  0  0  0  0  0  0  0  0  0
   28.9950  -28.4160  -16.4720 H   0  0  0  0  0  0  0  0  0  0  0  0
   26.7760  -27.0150  -16.9300 C   0  0  0  0  0  0  0  0  0  0  0  0
   26.2750  -26.0890  -17.5720 O   0  0  0  0  0  0  0  0  0  0  0  0
   26.2450  -28.4410  -17.1800 C   0  0  0  0  0  0  0  0  0  0  0  0
   24.9030  -28.4690  -17.2660 N   0  0  0  0  0  0  0  0  0  0  0  0
   27.0020  -29.4040  -17.3390 O   0  0  0  0  0  0  0  0  0  0  0  0
   24.4070  -27.6120  -17.0530 H   0  0  0  0  0  0  0  0  0  0  0  0
   24.0680  -29.5770  -17.7370 C   0  0  0  0  0  2  0  0  0  0  0  0
   20.7570  -31.0410  -16.8460 C   0  0  0  0  0  0  0  0  0  0  0  0
   20.1030  -30.4580  -15.9730 O   0  0  0  0  0  0  0  0  0  0  0  0
   22.6370  -29.5150  -17.1680 C   0  0  0  0  0  0  0  0  0  0  0  0
   21.8550  -30.5660  -17.4700 N   0  0  0  0  0  0  0  0  0  0  0  0
   22.2970  -28.5580  -16.4610 O   0  0  0  0  0  0  0  0  0  0  0  0
   22.2850  -31.2400  -18.0840 H   0  0  0  0  0  0  0  0  0  0  0  0
   20.5370  -32.5350  -17.0840 C   0  0  0  0  0  2  0  0  0  0  0  0
   21.1810  -33.3600  -15.9360 C   0  0  0  0  0  3  0  0  0  0  0  0
   22.5470  -32.8920  -15.6610 N   0  0  0  0  0  0  0  0  0  0  0  0
   21.1990  -34.8550  -16.1650 C   0  0  0  0  0  0  0  0  0  0  0  0
   20.9400  -35.4990  -17.3090 N   0  0  0  0  0  0  0  0  0  0  0  0
   21.1760  -36.8360  -17.0460 N   0  0  0  0  0  0  0  0  0  0  0  0
   21.5770  -36.8880  -15.7690 C   0  0  0  0  0  0  0  0  0  0  0  0
   21.9940  -38.1550  -15.0900 C   0  0  0  0  0  1  0  0  0  0  0  0
   21.5920  -35.6780  -15.1700 N   0  0  0  0  0  0  0  0  0  0  0  0
   21.9090  -35.3030  -13.8490 C   0  0  0  0  0  0  0  0  0  0  0  0
   21.4490  -36.1750  -12.4230 S   0  0  0  0  0  0  0  0  0  0  0  0
   22.1250  -34.9430  -11.3980 C   0  0  0  0  0  0  0  0  0  0  0  0
   22.0420  -35.1060   -9.9140 C   0  0  0  0  0  1  0  0  0  0  0  0
   22.6620  -33.9020  -12.1230 C   0  0  0  0  0  0  0  0  0  0  0  0
   23.2510  -32.6800  -11.4600 C   0  0  0  0  0  1  0  0  0  0  0  0
   22.5730  -34.1340  -13.5420 C   0  0  0  0  0  0  0  0  0  0  0  0
   23.1440  -33.2040  -14.5710 C   0  0  0  0  0  0  0  0  0  0  0  0
   24.4920  -32.6370  -14.3460 C   0  0  0  0  0  0  0  0  0  0  0  0
   25.5400  -33.4690  -13.8930 C   0  0  0  0  0  3  0  0  0  0  0  0
   26.8150  -32.9280  -13.6460 C   0  0  0  0  0  3  0  0  0  0  0  0
   27.0430  -31.5540  -13.8400 C   0  0  0  0  0  0  0  0  0  0  0  0
   28.5980  -30.8860  -13.5230 Cl  0  0  0  0  0  0  0  0  0  0  0  0
   26.0040  -30.7200  -14.2920 C   0  0  0  0  0  3  0  0  0  0  0  0
   24.7300  -31.2620  -14.5590 C   0  0  0  0  0  3  0  0  0  0  0  0
   24.8970  -23.5000  -15.1350 C   0  0  0  0  0  3  0  0  0  0  0  0
   21.7260  -23.8670  -12.8510 C   0  0  0  0  0  3  0  0  0  0  0  0
   21.2320  -22.6580  -12.0490 C   0  0  0  0  0  2  0  0  0  0  0  0
   22.4850  -21.8480  -11.7770 C   0  0  0  0  0  3  0  0  0  0  0  0
   23.4090  -22.1390  -12.9580 C   0  0  0  0  0  2  0  0  0  0  0  0
   22.9520  -23.4070  -13.5400 N   0  0  0  0  0  0  0  0  0  0  0  0
   23.6330  -24.1130  -14.4770 C   0  0  0  0  0  0  0  0  0  0  0  0
   23.2980  -25.2560  -14.8020 O   0  0  0  0  0  0  0  0  0  0  0  0
   19.8170  -25.3280  -13.2380 N   0  0  0  0  0  0  0  0  0  0  0  0
   20.6000  -24.3800  -13.7630 C   0  0  0  0  0  0  0  0  0  0  0  0
   20.4160  -23.8910  -14.8790 O   0  0  0  0  0  0  0  0  0  0  0  0
   20.0480  -25.6860  -12.3240 H   0  0  0  0  0  0  0  0  0  0  0  0
   18.5800  -25.8100  -13.8370 C   0  0  0  0  0  2  0  0  0  0  0  0
   15.1240  -23.3870  -12.7710 C   0  0  0  0  0  0  0  0  0  0  0  0
   16.1420  -23.6190  -11.8240 C   0  0  0  0  0  3  0  0  0  0  0  0
   17.2620  -24.4010  -12.1640 C   0  0  0  0  0  3  0  0  0  0  0  0
   15.2420  -23.9280  -14.0670 C   0  0  0  0  0  3  0  0  0  0  0  0
   16.3620  -24.7090  -14.4090 C   0  0  0  0  0  3  0  0  0  0  0  0
   17.3770  -24.9530  -13.4610 C   0  0  0  0  0  0  0  0  0  0  0  0
   12.0350  -23.8810  -13.5780 C   0  0  0  0  0  1  0  0  0  0  0  0
   12.6360  -22.7970  -12.7030 C   0  0  0  0  0  0  0  0  0  0  0  0
   11.7770  -21.8990  -12.1040 N   0  0  0  0  0  0  0  0  0  0  0  0
   12.3530  -21.0000  -11.1100 C   0  0  0  0  0  2  0  0  0  0  0  0
   14.1390  -21.2230  -11.3380 S   0  0  0  0  0  0  0  0  0  0  0  0
   13.9230  -22.6350  -12.3650 C   0  0  0  0  0  0  0  0  0  0  0  0
   10.7650  -21.9630  -12.1770 H   0  0  0  0  0  0  0  0  0  0  0  0
   23.1200  -22.2990  -10.5900 O   0  0  0  0  0  0  0  0  0  0  0  0
   23.3980  -23.1960  -10.7260 H   0  0  0  0  0  0  0  0  0  0  0  0
   24.5990  -22.8470  -16.5510 C   0  0  1  0  0  0  0  0  0  0  0  0
   25.9210  -22.2330  -17.0680 C   0  0  0  0  0  1  0  0  0  0  0  0
   24.0350  -23.8450  -17.6090 C   0  0  0  0  0  1  0  0  0  0  0  0
   23.5880  -21.6740  -16.4770 C   0  0  0  0  0  1  0  0  0  0  0  0
  1 48  1  0
  1  2  1  0
  2  3  2  0
  4  5  1  0
  5  8  1  0
  5  2  1  0
  6  4  2  0
  6  9  1  0
  7  1  1  0
 10  6  1  0
 11  4  1  0
 12 11  2  0
 13 11  1  0
 14 13  1  0
 14 16  1  0
 15 13  2  0
 17 14  1  0
 17 20  1  0
 18 19  2  0
 20 22  2  0
 21 20  1  0
 21 18  1  0
 23 21  1  0
 24 18  1  0
 25 24  1  0
 25 26  1  0
 26 40  2  0
 27 25  1  0
 27 32  1  0
 28 29  1  0
 28 27  2  0
 29 30  2  0
 30 32  1  0
 30 31  1  0
 32 33  1  0
 33 39  2  0
 33 34  1  0
 34 35  1  0
 35 36  1  0
 37 38  1  0
 37 35  2  0
 39 37  1  0
 40 41  1  0
 40 39  1  0
 41 42  1  0
 42 43  2  0
 44 43  1  0
 44 45  1  0
 46 44  2  0
 47 41  2  0
 47 46  1  0
 48 54  1  0
 49 57  1  0
 49 50  1  0
 50 51  1  0
 51 74  1  0
 52 51  1  0
 53 52  1  0
 53 49  1  0
 54 53  1  0
 55 54  2  0
 56 59  1  0
 57 56  1  0
 58 57  2  0
 60 66  1  0
 60 56  1  0
 61 72  1  0
 61 62  1  0
 63 62  2  0
 64 61  2  0
 65 64  1  0
 65 66  2  0
 66 63  1  0
 67 68  1  0
 68 72  2  0
 68 69  1  0
 69 70  1  0
 71 70  1  0
 72 71  1  0
 73 69  1  0
 75 74  1  0
 76 79  1  1
 76 48  1  0
 77 76  1  0
 78 76  1  0
M  ISO  4   2 101   5 101  18 100  21 100
M  END
>  <TORSDO>  (122) 
F 15

>  <SCORE>  (122) 
-13.371

>  <name>  (122) 
121

>  <ligand_id>  (122) 
121

>  <original_smiles>  (122) 
[H]OC1([H])C([H])([H])N(C(=O)C([H])(N([H])C(=O)N([H])C(C(=O)C(=O)N([H])C([H])([H])C(=O)N([H])C(=O)C([H])([H])C2([H])N=C(c3c([H])c([H])c(Cl)c([H])c3[H])c3c(sc(C([H])([H])[H])c3C([H])([H])[H])-n3c(C([H])([H])[H])nnc32)=[N+]([H])[H])C(C([H])([H])[H])(C([H])([H])[H])C([H])([H])[H])C([H])(C(=O)N([H])C([H])([H])c2c([H])c([H])c(C3=C(C([H])([H])[H])N([H])C([H])([H])S3)c([H])c2[H])C1([H])[H]

>  <smiles>  (122) 
[H]OC1([H])C([H])([H])N(C(=O)C([H])(N([H])C(=O)N([H])C(C(=O)C(=O)N([H])C([H])([H])C(=O)N([H])C(=O)C([H])([H])C2([H])N=C(c3c([H])c([H])c(Cl)c([H])c3[H])c3c(sc(C([H])([H])[H])c3C([H])([H])[H])-n3c(C([H])([H])[H])nnc32)=[N+]([H])[H])C(C([H])([H])[H])(C([H])([H])[H])C([H])([H])[H])C([H])(C(=O)N([H])C([H])([H])c2c([H])c([H])c(C3=C(C([H])([H])[H])N([H])C([H])([H])S3)c([H])c2[H])C1([H])[H]

$$$$
122:0:0
     RDKit          3D

 80 86  0  0  1  0  0  0  0  0999 V2000
   24.5050  -27.4860  -15.4340 C   0  0  0  0  0  3  0  0  0  0  0  0
   23.0120  -28.4020  -17.2820 C   0  0  0  0  0  0  0  0  0  0  0  0
   23.6880  -27.9660  -14.2570 C   0  0  0  0  0  1  0  0  0  0  0  0
   21.8930  -27.9890  -16.8020 N   0  0  0  0  0  0  0  0  0  0  0  0
   24.1170  -27.7380  -16.7270 N   0  0  0  0  0  0  0  0  0  0  0  0
   23.1930  -29.4050  -18.2370 N   0  0  0  0  0  0  0  0  0  0  0  0
   25.6540  -26.8340  -15.0980 N   0  0  0  0  0  0  0  0  0  0  0  0
   22.0350  -27.2090  -16.1570 H   0  0  0  0  0  0  0  0  0  0  0  0
   24.8360  -27.5660  -17.4150 H   0  0  0  0  0  0  0  0  0  0  0  0
   24.0750  -29.5350  -18.7180 H   0  0  0  0  0  0  0  0  0  0  0  0
   25.8860  -26.6990  -14.1190 H   0  0  0  0  0  0  0  0  0  0  0  0
   25.2700  -24.3000  -16.4260 N   0  0  0  0  0  0  0  0  0  0  0  0
   26.2840  -24.7940  -15.7240 C   0  0  0  0  0  0  0  0  0  0  0  0
   26.8430  -24.2050  -14.7930 O   0  0  0  0  0  0  0  0  0  0  0  0
   26.4330  -26.0920  -15.9960 N   0  0  0  0  0  0  0  0  0  0  0  0
   24.9230  -24.8370  -17.2020 H   0  0  0  0  0  0  0  0  0  0  0  0
   26.1700  -26.4370  -16.9010 H   0  0  0  0  0  0  0  0  0  0  0  0
   24.3250  -23.2820  -15.9720 C   0  0  0  0  0  3  0  0  0  0  0  0
   21.5100  -24.0020  -13.3060 C   0  0  0  0  0  3  0  0  0  0  0  0
   21.1240  -22.9110  -12.2940 C   0  0  0  0  0  2  0  0  0  0  0  0
   22.3910  -22.1010  -12.1140 C   0  0  0  0  0  3  0  0  0  0  0  0
   23.1250  -22.2130  -13.4510 C   0  0  0  0  0  2  0  0  0  0  0  0
   22.6100  -23.4230  -14.1060 N   0  0  0  0  0  0  0  0  0  0  0  0
   23.1620  -23.9950  -15.2070 C   0  0  0  0  0  0  0  0  0  0  0  0
   22.7990  -25.1100  -15.6060 O   0  0  0  0  0  0  0  0  0  0  0  0
   19.5090  -25.3790  -13.5320 N   0  0  0  0  0  0  0  0  0  0  0  0
   20.2580  -24.4240  -14.0930 C   0  0  0  0  0  0  0  0  0  0  0  0
   19.9510  -23.8570  -15.1450 O   0  0  0  0  0  0  0  0  0  0  0  0
   19.8380  -25.7970  -12.6730 H   0  0  0  0  0  0  0  0  0  0  0  0
   18.1900  -25.7920  -13.9950 C   0  0  0  0  0  2  0  0  0  0  0  0
   15.0010  -23.1310  -12.6870 C   0  0  0  0  0  0  0  0  0  0  0  0
   16.1000  -23.3900  -11.8430 C   0  0  0  0  0  3  0  0  0  0  0  0
   17.1330  -24.2450  -12.2620 C   0  0  0  0  0  3  0  0  0  0  0  0
   14.9500  -23.7360  -13.9610 C   0  0  0  0  0  3  0  0  0  0  0  0
   15.9850  -24.5930  -14.3810 C   0  0  0  0  0  3  0  0  0  0  0  0
   17.0820  -24.8540  -13.5360 C   0  0  0  0  0  0  0  0  0  0  0  0
   11.8220  -23.5180  -13.0800 C   0  0  0  0  0  1  0  0  0  0  0  0
   12.5700  -22.4120  -12.3640 C   0  0  0  0  0  0  0  0  0  0  0  0
   11.8290  -21.4380  -11.7250 N   0  0  0  0  0  0  0  0  0  0  0  0
   12.5620  -20.5230  -10.8590 C   0  0  0  0  0  2  0  0  0  0  0  0
   14.2930  -20.8380  -11.2970 S   0  0  0  0  0  0  0  0  0  0  0  0
   13.8940  -22.2950  -12.1950 C   0  0  0  0  0  0  0  0  0  0  0  0
   10.8150  -21.4600  -11.6700 H   0  0  0  0  0  0  0  0  0  0  0  0
   23.1960  -22.6660  -11.0910 O   0  0  0  0  0  0  0  0  0  0  0  0
   23.4020  -23.5640  -11.3290 H   0  0  0  0  0  0  0  0  0  0  0  0
   23.8540  -22.5080  -17.2540 C   0  0  1  0  0  0  0  0  0  0  0  0
   25.0460  -21.6930  -17.8050 C   0  0  0  0  0  1  0  0  0  0  0  0
   23.3470  -23.4430  -18.3810 C   0  0  0  0  0  1  0  0  0  0  0  0
   22.7320  -21.5010  -16.9280 C   0  0  0  0  0  1  0  0  0  0  0  0
   22.2690  -30.6270  -18.3400 N   0  0  0  0  0  4  0  0  0  0  0  0
   22.4100  -31.0370  -19.2520 H   0  0  0  0  0  0  0  0  0  0  0  0
   22.5550  -31.3190  -17.6550 H   0  0  0  0  0  0  0  0  0  0  0  0
   20.3620  -31.3300  -17.2830 C   0  0  0  0  0  0  0  0  0  0  0  0
   19.8410  -30.9440  -16.2400 O   0  0  0  0  0  0  0  0  0  0  0  0
   20.7990  -30.4150  -18.1680 N   0  0  0  0  0  0  0  0  0  0  0  0
   20.5760  -29.4480  -17.9730 H   0  0  0  0  0  0  0  0  0  0  0  0
   20.5750  -32.8500  -17.4920 C   0  0  0  0  0  2  0  0  0  0  0  0
   21.1520  -33.5330  -16.2200 C   0  0  0  0  0  3  0  0  0  0  0  0
   22.4910  -32.9790  -15.9810 N   0  0  0  0  0  0  0  0  0  0  0  0
   21.2120  -35.0560  -16.2680 C   0  0  0  0  0  0  0  0  0  0  0  0
   20.9510  -35.8350  -17.3240 N   0  0  0  0  0  0  0  0  0  0  0  0
   21.2210  -37.1270  -16.9130 N   0  0  0  0  0  0  0  0  0  0  0  0
   21.6330  -37.0290  -15.6450 C   0  0  0  0  0  0  0  0  0  0  0  0
   22.0920  -38.2020  -14.8330 C   0  0  0  0  0  1  0  0  0  0  0  0
   21.6170  -35.7570  -15.1900 N   0  0  0  0  0  0  0  0  0  0  0  0
   21.9290  -35.2340  -13.9190 C   0  0  0  0  0  0  0  0  0  0  0  0
   21.5080  -35.9610  -12.4000 S   0  0  0  0  0  0  0  0  0  0  0  0
   22.1550  -34.6050  -11.5210 C   0  0  0  0  0  0  0  0  0  0  0  0
   22.0990  -34.6000  -10.0260 C   0  0  0  0  0  1  0  0  0  0  0  0
   22.6520  -33.6320  -12.3610 C   0  0  0  0  0  0  0  0  0  0  0  0
   23.2050  -32.3250  -11.8490 C   0  0  0  0  0  1  0  0  0  0  0  0
   22.5570  -34.0200  -13.7460 C   0  0  0  0  0  0  0  0  0  0  0  0
   23.1010  -33.1940  -14.8700 C   0  0  0  0  0  0  0  0  0  0  0  0
   24.4400  -32.5880  -14.7100 C   0  0  0  0  0  0  0  0  0  0  0  0
   25.4700  -33.2830  -14.0410 C   0  0  0  0  0  3  0  0  0  0  0  0
   26.7320  -32.6810  -13.8740 C   0  0  0  0  0  3  0  0  0  0  0  0
   26.9730  -31.3920  -14.3860 C   0  0  0  0  0  0  0  0  0  0  0  0
   28.5110  -30.6430  -14.1840 Cl  0  0  0  0  0  0  0  0  0  0  0  0
   25.9520  -30.7040  -15.0580 C   0  0  0  0  0  3  0  0  0  0  0  0
   24.6860  -31.2970  -15.2080 C   0  0  0  0  0  3  0  0  0  0  0  0
  1  7  1  0
  1  3  1  0
  2  4  2  0
  2  5  1  0
  4  8  1  0
  5  1  1  0
  6  2  1  0
  7 11  1  0
  9  5  1  0
 10  6  1  0
 12 18  1  0
 12 13  1  0
 13 14  2  0
 15 13  1  0
 15  7  1  0
 16 12  1  0
 17 15  1  0
 18 24  1  0
 19 27  1  0
 19 20  1  0
 20 21  1  0
 21 44  1  0
 22 21  1  0
 23 22  1  0
 23 19  1  0
 24 23  1  0
 25 24  2  0
 26 29  1  0
 27 26  1  0
 28 27  2  0
 30 36  1  0
 30 26  1  0
 31 42  1  0
 31 32  1  0
 33 32  2  0
 34 31  2  0
 35 34  1  0
 35 36  2  0
 36 33  1  0
 37 38  1  0
 38 42  2  0
 38 39  1  0
 39 43  1  0
 39 40  1  0
 41 40  1  0
 42 41  1  0
 45 44  1  0
 46 49  1  1
 46 18  1  0
 47 46  1  0
 48 46  1  0
 50  6  1  0
 50 55  1  0
 50 52  1  0
 51 50  1  0
 53 54  2  0
 55 56  1  0
 55 53  1  0
 57 53  1  0
 58 57  1  0
 58 59  1  0
 59 73  2  0
 60 58  1  0
 60 65  1  0
 61 62  1  0
 61 60  2  0
 62 63  2  0
 63 65  1  0
 63 64  1  0
 65 66  1  0
 66 72  2  0
 66 67  1  0
 67 68  1  0
 68 69  1  0
 70 71  1  0
 70 68  2  0
 72 70  1  0
 73 74  1  0
 73 72  1  0
 74 75  1  0
 75 76  2  0
 77 78  1  0
 77 76  1  0
 79 77  2  0
 80 79  1  0
 80 74  2  0
M  ISO  4  13 101  15 101  53 100  55 100
M  END
>  <TORSDO>  (123) 
F 14

>  <SCORE>  (123) 
-11.270

>  <name>  (123) 
122

>  <ligand_id>  (123) 
122

>  <original_smiles>  (123) 
[H]N=C(N([H])C(=[N+]([H])N([H])C(=O)N([H])C([H])(C(=O)N1C([H])([H])C([H])(O[H])C([H])([H])C1([H])C(=O)N([H])C([H])([H])c1c([H])c([H])c(C2=C(C([H])([H])[H])N([H])C([H])([H])S2)c([H])c1[H])C(C([H])([H])[H])(C([H])([H])[H])C([H])([H])[H])C([H])([H])[H])N([H])[N+]([H])([H])N([H])C(=O)C([H])([H])C1([H])N=C(c2c([H])c([H])c(Cl)c([H])c2[H])c2c(sc(C([H])([H])[H])c2C([H])([H])[H])-n2c(C([H])([H])[H])nnc21

>  <smiles>  (123) 
[H]N=C(N([H])C(=[N+]([H])N([H])C(=O)N([H])C([H])(C(=O)N1C([H])([H])C([H])(O[H])C([H])([H])C1([H])C(=O)N([H])C([H])([H])c1c([H])c([H])c(C2=C(C([H])([H])[H])N([H])C([H])([H])S2)c([H])c1[H])C(C([H])([H])[H])(C([H])([H])[H])C([H])([H])[H])C([H])([H])[H])N([H])[N+]([H])([H])N([H])C(=O)C([H])([H])C1([H])N=C(c2c([H])c([H])c(Cl)c([H])c2[H])c2c(sc(C([H])([H])[H])c2C([H])([H])[H])-n2c(C([H])([H])[H])nnc21

$$$$
123:0:0
     RDKit          3D

 76 83  0  0  1  0  0  0  0  0999 V2000
   25.9770  -24.3520  -16.1290 N   0  0  0  0  0  0  0  0  0  0  0  0
   26.6750  -25.2910  -15.5180 C   0  0  0  0  0  0  0  0  0  0  0  0
   27.3770  -25.0560  -14.5260 O   0  0  0  0  0  0  0  0  0  0  0  0
   25.0850  -28.2210  -14.9700 C   0  0  0  0  0  2  0  0  0  0  0  0
   24.2960  -27.7690  -16.2010 C   0  0  0  0  0  2  0  0  0  0  0  0
   26.5100  -27.7000  -15.1870 C   0  0  0  0  0  2  0  0  0  0  0  0
   25.1870  -26.7740  -16.9510 C   0  0  0  0  0  3  0  0  0  0  0  0
   26.3420  -26.5160  -16.0230 N   0  0  0  0  0  0  0  0  0  0  0  0
   25.5670  -24.6840  -16.9840 H   0  0  0  0  0  0  0  0  0  0  0  0
   25.4720  -27.0920  -18.4590 C   0  0  0  0  0  3  0  0  0  0  0  0
   24.1350  -27.4010  -19.2240 C   0  0  0  0  0  2  0  0  0  0  0  0
   23.6010  -28.8560  -19.2090 C   0  0  0  0  0  2  0  0  0  0  0  0
   22.2940  -29.0840  -18.3970 C   0  0  0  0  0  2  0  0  0  0  0  0
   21.1500  -31.1970  -17.6190 C   0  0  0  0  0  0  0  0  0  0  0  0
   20.6030  -30.7020  -16.6300 O   0  0  0  0  0  0  0  0  0  0  0  0
   21.8320  -30.4730  -18.5260 N   0  0  0  0  0  0  0  0  0  0  0  0
   22.2440  -30.9980  -19.2850 H   0  0  0  0  0  0  0  0  0  0  0  0
   21.2930  -32.7220  -17.7440 C   0  0  0  0  0  2  0  0  0  0  0  0
   21.6960  -33.3520  -16.3810 C   0  0  0  0  0  3  0  0  0  0  0  0
   23.0600  -32.9430  -16.0360 N   0  0  0  0  0  0  0  0  0  0  0  0
   21.6060  -34.8660  -16.3220 C   0  0  0  0  0  0  0  0  0  0  0  0
   21.3920  -35.6990  -17.3480 N   0  0  0  0  0  0  0  0  0  0  0  0
   21.5000  -36.9730  -16.8240 N   0  0  0  0  0  0  0  0  0  0  0  0
   21.7830  -36.8120  -15.5270 C   0  0  0  0  0  0  0  0  0  0  0  0
   22.0460  -37.9520  -14.5910 C   0  0  0  0  0  1  0  0  0  0  0  0
   21.8340  -35.5130  -15.1590 N   0  0  0  0  0  0  0  0  0  0  0  0
   22.0640  -34.9220  -13.9000 C   0  0  0  0  0  0  0  0  0  0  0  0
   21.4220  -35.4830  -12.3910 S   0  0  0  0  0  0  0  0  0  0  0  0
   22.1030  -34.1220  -11.5430 C   0  0  0  0  0  0  0  0  0  0  0  0
   21.8940  -33.9940  -10.0690 C   0  0  0  0  0  1  0  0  0  0  0  0
   22.7770  -33.2680  -12.3890 C   0  0  0  0  0  0  0  0  0  0  0  0
   23.3970  -31.9780  -11.9140 C   0  0  0  0  0  1  0  0  0  0  0  0
   22.7890  -33.7610  -13.7420 C   0  0  0  0  0  0  0  0  0  0  0  0
   23.5300  -33.0980  -14.8560 C   0  0  0  0  0  0  0  0  0  0  0  0
   24.9000  -32.6160  -14.5950 C   0  0  0  0  0  0  0  0  0  0  0  0
   25.7360  -33.2570  -13.6560 C   0  0  0  0  0  3  0  0  0  0  0  0
   27.0260  -32.7550  -13.3970 C   0  0  0  0  0  3  0  0  0  0  0  0
   27.4850  -31.6140  -14.0760 C   0  0  0  0  0  0  0  0  0  0  0  0
   29.0530  -30.9700  -13.7610 Cl  0  0  0  0  0  0  0  0  0  0  0  0
   26.6620  -31.0000  -15.0260 C   0  0  0  0  0  3  0  0  0  0  0  0
   25.3730  -31.4980  -15.2880 C   0  0  0  0  0  3  0  0  0  0  0  0
   26.2170  -25.9550  -19.1970 C   0  0  0  0  0  2  0  0  0  0  0  0
   27.6330  -25.7780  -18.8430 C   0  0  0  0  0  0  0  0  0  0  0  0
   28.7480  -25.6320  -18.5600 N   0  0  0  0  0  0  0  0  0  0  0  0
   25.1040  -23.3810  -15.4860 C   0  0  0  0  0  3  0  0  0  0  0  0
   22.1290  -24.1490  -13.0030 C   0  0  0  0  0  3  0  0  0  0  0  0
   21.6700  -23.0680  -12.0150 C   0  0  0  0  0  2  0  0  0  0  0  0
   22.9170  -22.2480  -11.7510 C   0  0  0  0  0  3  0  0  0  0  0  0
   23.7420  -22.3430  -13.0320 C   0  0  0  0  0  2  0  0  0  0  0  0
   23.2770  -23.5480  -13.7180 N   0  0  0  0  0  0  0  0  0  0  0  0
   23.8920  -24.0960  -14.7870 C   0  0  0  0  0  0  0  0  0  0  0  0
   23.5000  -25.1730  -15.2220 O   0  0  0  0  0  0  0  0  0  0  0  0
   20.1620  -25.5600  -13.3590 N   0  0  0  0  0  0  0  0  0  0  0  0
   20.9340  -24.5930  -13.8700 C   0  0  0  0  0  0  0  0  0  0  0  0
   20.6850  -24.0310  -14.9410 O   0  0  0  0  0  0  0  0  0  0  0  0
   20.4490  -25.9820  -12.4850 H   0  0  0  0  0  0  0  0  0  0  0  0
   18.8820  -25.9920  -13.9070 C   0  0  0  0  0  2  0  0  0  0  0  0
   15.5850  -23.3700  -12.8070 C   0  0  0  0  0  0  0  0  0  0  0  0
   16.6090  -23.6480  -11.8790 C   0  0  0  0  0  3  0  0  0  0  0  0
   17.6760  -24.4920  -12.2310 C   0  0  0  0  0  3  0  0  0  0  0  0
   15.6410  -23.9440  -14.0950 C   0  0  0  0  0  3  0  0  0  0  0  0
   16.7110  -24.7900  -14.4470 C   0  0  0  0  0  3  0  0  0  0  0  0
   17.7340  -25.0690  -13.5190 C   0  0  0  0  0  0  0  0  0  0  0  0
   12.4600  -23.6990  -13.5430 C   0  0  0  0  0  1  0  0  0  0  0  0
   13.1370  -22.6380  -12.6980 C   0  0  0  0  0  0  0  0  0  0  0  0
   12.3410  -21.6900  -12.0880 N   0  0  0  0  0  0  0  0  0  0  0  0
   12.9870  -20.8290  -11.1050 C   0  0  0  0  0  2  0  0  0  0  0  0
   14.7520  -21.1430  -11.3790 S   0  0  0  0  0  0  0  0  0  0  0  0
   14.4380  -22.5460  -12.3880 C   0  0  0  0  0  0  0  0  0  0  0  0
   11.3270  -21.7000  -12.1410 H   0  0  0  0  0  0  0  0  0  0  0  0
   23.6610  -22.8180  -10.6870 O   0  0  0  0  0  0  0  0  0  0  0  0
   23.8930  -23.7110  -10.9220 H   0  0  0  0  0  0  0  0  0  0  0  0
   24.6820  -22.3940  -16.6290 C   0  0  1  0  0  0  0  0  0  0  0  0
   25.9270  -21.5970  -17.0860 C   0  0  0  0  0  1  0  0  0  0  0  0
   24.0880  -23.1060  -17.8730 C   0  0  0  0  0  1  0  0  0  0  0  0
   23.6440  -21.3740  -16.1210 C   0  0  0  0  0  1  0  0  0  0  0  0
  1  2  1  0
  1 45  1  0
  2  3  2  0
  5  4  1  0
  6  4  1  0
  7 10  1  0
  7  5  1  0
  7  8  1  0
  8  2  1  0
  8  6  1  0
  9  1  1  0
 10 11  1  0
 11 12  1  0
 12 13  1  0
 14 15  2  0
 16 13  1  0
 16 14  1  0
 17 16  1  0
 18 14  1  0
 19 18  1  0
 19 21  1  0
 19 20  1  0
 20 34  2  0
 21 26  1  0
 22 23  1  0
 22 21  2  0
 23 24  2  0
 24 26  1  0
 24 25  1  0
 26 27  1  0
 27 33  2  0
 27 28  1  0
 28 29  1  0
 29 30  1  0
 31 32  1  0
 31 29  2  0
 33 31  1  0
 34 35  1  0
 34 33  1  0
 35 36  1  0
 36 37  2  0
 38 39  1  0
 38 37  1  0
 40 38  2  0
 41 40  1  0
 41 35  2  0
 42 43  1  0
 42 10  1  0
 43 44  3  0
 45 51  1  0
 46 54  1  0
 46 47  1  0
 47 48  1  0
 48 71  1  0
 49 48  1  0
 50 49  1  0
 50 46  1  0
 51 50  1  0
 52 51  2  0
 53 56  1  0
 54 53  1  0
 55 54  2  0
 57 63  1  0
 57 53  1  0
 58 69  1  0
 58 59  1  0
 60 59  2  0
 61 58  2  0
 62 61  1  0
 62 63  2  0
 63 60  1  0
 64 65  1  0
 65 69  2  0
 65 66  1  0
 66 67  1  0
 68 67  1  0
 69 68  1  0
 70 66  1  0
 72 71  1  0
 73 76  1  1
 73 45  1  0
 74 73  1  0
 75 73  1  0
M  ISO  4   2 101   8 101  14 100  16 100
M  END
>  <TORSDO>  (124) 
F 18

>  <SCORE>  (124) 
-10.938

>  <name>  (124) 
123

>  <ligand_id>  (124) 
123

>  <original_smiles>  (124) 
[H]OC1([H])C([H])([H])N(C(=O)C([H])(N([H])C(=O)N2C([H])([H])C([H])([H])C([H])([H])C2([H])C([H])(C([H])([H])C#N)C([H])([H])C([H])([H])C([H])([H])N([H])C(=O)C([H])([H])C2([H])N=C(c3c([H])c([H])c(Cl)c([H])c3[H])c3c(sc(C([H])([H])[H])c3C([H])([H])[H])-n3c(C([H])([H])[H])nnc32)C(C([H])([H])[H])(C([H])([H])[H])C([H])([H])[H])C([H])(C(=O)N([H])C([H])([H])c2c([H])c([H])c(C3=C(C([H])([H])[H])N([H])C([H])([H])S3)c([H])c2[H])C1([H])[H]

>  <smiles>  (124) 
[H]OC1([H])C([H])([H])N(C(=O)C([H])(N([H])C(=O)N2C([H])([H])C([H])([H])C([H])([H])C2([H])C([H])(C([H])([H])C#N)C([H])([H])C([H])([H])C([H])([H])N([H])C(=O)C([H])([H])C2([H])N=C(c3c([H])c([H])c(Cl)c([H])c3[H])c3c(sc(C([H])([H])[H])c3C([H])([H])[H])-n3c(C([H])([H])[H])nnc32)C(C([H])([H])[H])(C([H])([H])[H])C([H])([H])[H])C([H])(C(=O)N([H])C([H])([H])c2c([H])c([H])c(C3=C(C([H])([H])[H])N([H])C([H])([H])S3)c([H])c2[H])C1([H])[H]

$$$$
124:0:0
     RDKit          3D

 83 90  0  0  1  0  0  0  0  0999 V2000
   25.4620  -24.2650  -15.1480 N   0  0  0  0  0  0  0  0  0  0  0  0
   26.3460  -24.6090  -14.2140 C   0  0  0  0  0  0  0  0  0  0  0  0
   26.6330  -23.8740  -13.2580 O   0  0  0  0  0  0  0  0  0  0  0  0
   26.2950  -26.9580  -16.5600 C   0  0  0  0  0  0  0  0  0  0  0  0
   26.8790  -27.5140  -17.7190 C   0  0  0  0  0  0  0  0  0  0  0  0
   27.2210  -26.5070  -15.5610 C   0  0  0  0  0  0  0  0  0  0  0  0
   28.9370  -27.3020  -16.8510 C   0  0  0  0  0  0  0  0  0  0  0  0
   28.1950  -27.6830  -17.8700 N   0  0  0  0  0  0  0  0  0  0  0  0
   28.5400  -26.7350  -15.7290 N   0  0  0  0  0  0  0  0  0  0  0  0
   30.2750  -27.4850  -16.9790 N   0  0  0  0  0  0  0  0  0  0  0  0
   26.8200  -25.8600  -14.3520 N   0  0  0  0  0  0  0  0  0  0  0  0
   25.2040  -25.0200  -15.7850 H   0  0  0  0  0  0  0  0  0  0  0  0
   30.5710  -28.1770  -17.6540 H   0  0  0  0  0  0  0  0  0  0  0  0
   30.8110  -27.4560  -16.1240 H   0  0  0  0  0  0  0  0  0  0  0  0
   27.3800  -26.1320  -13.5600 H   0  0  0  0  0  0  0  0  0  0  0  0
   26.0800  -27.9260  -18.7770 N   0  0  0  0  0  0  0  0  0  0  0  0
   25.1340  -28.1610  -18.5140 H   0  0  0  0  0  0  0  0  0  0  0  0
   26.4980  -28.5900  -19.4140 H   0  0  0  0  0  0  0  0  0  0  0  0
   24.8840  -26.8950  -16.4910 N   0  0  0  0  0  0  0  0  0  0  0  0
   24.5170  -26.6280  -17.4010 H   0  0  0  0  0  0  0  0  0  0  0  0
   24.2700  -28.1640  -16.0750 C   0  0  0  0  0  2  0  0  0  0  0  0
   22.7280  -28.2760  -16.2550 C   0  0  0  0  0  2  0  0  0  0  0  0
   22.1570  -28.8560  -17.5890 C   0  0  0  0  0  2  0  0  0  0  0  0
   21.0710  -31.1250  -17.1760 C   0  0  0  0  0  0  0  0  0  0  0  0
   20.2310  -30.6890  -16.3900 O   0  0  0  0  0  0  0  0  0  0  0  0
   22.0330  -30.3280  -17.6970 N   0  0  0  0  0  0  0  0  0  0  0  0
   22.7320  -30.7910  -18.2650 H   0  0  0  0  0  0  0  0  0  0  0  0
   21.1460  -32.6460  -17.4470 C   0  0  0  0  0  2  0  0  0  0  0  0
   21.5360  -33.4240  -16.1610 C   0  0  0  0  0  3  0  0  0  0  0  0
   22.8880  -33.0220  -15.7820 N   0  0  0  0  0  0  0  0  0  0  0  0
   21.4700  -34.9420  -16.2460 C   0  0  0  0  0  0  0  0  0  0  0  0
   21.2550  -35.6810  -17.3420 N   0  0  0  0  0  0  0  0  0  0  0  0
   21.3900  -36.9970  -16.9390 N   0  0  0  0  0  0  0  0  0  0  0  0
   21.6860  -36.9510  -15.6360 C   0  0  0  0  0  0  0  0  0  0  0  0
   21.9810  -38.1690  -14.8130 C   0  0  0  0  0  1  0  0  0  0  0  0
   21.7180  -35.6920  -15.1510 N   0  0  0  0  0  0  0  0  0  0  0  0
   21.9470  -35.2200  -13.8420 C   0  0  0  0  0  0  0  0  0  0  0  0
   21.3280  -35.9370  -12.3880 S   0  0  0  0  0  0  0  0  0  0  0  0
   21.9890  -34.6510  -11.4170 C   0  0  0  0  0  0  0  0  0  0  0  0
   21.7910  -34.6680   -9.9360 C   0  0  0  0  0  1  0  0  0  0  0  0
   22.6380  -33.7050  -12.1820 C   0  0  0  0  0  0  0  0  0  0  0  0
   23.2380  -32.4560  -11.5880 C   0  0  0  0  0  1  0  0  0  0  0  0
   22.6510  -34.0650  -13.5770 C   0  0  0  0  0  0  0  0  0  0  0  0
   23.3660  -33.2710  -14.6230 C   0  0  0  0  0  0  0  0  0  0  0  0
   24.7180  -32.7580  -14.3290 C   0  0  0  0  0  0  0  0  0  0  0  0
   25.6760  -33.5820  -13.7030 C   0  0  0  0  0  3  0  0  0  0  0  0
   26.9550  -33.0720  -13.4060 C   0  0  0  0  0  3  0  0  0  0  0  0
   27.2770  -31.7430  -13.7350 C   0  0  0  0  0  0  0  0  0  0  0  0
   28.8410  -31.1180  -13.3700 Cl  0  0  0  0  0  0  0  0  0  0  0  0
   26.3250  -30.9190  -14.3600 C   0  0  0  0  0  3  0  0  0  0  0  0
   25.0460  -31.4290  -14.6560 C   0  0  0  0  0  3  0  0  0  0  0  0
   24.4460  -23.2210  -15.0440 C   0  0  0  0  0  3  0  0  0  0  0  0
   21.4140  -23.7030  -12.5800 C   0  0  0  0  0  3  0  0  0  0  0  0
   20.8880  -22.5120  -11.7640 C   0  0  0  0  0  2  0  0  0  0  0  0
   22.0990  -21.6220  -11.5790 C   0  0  0  0  0  3  0  0  0  0  0  0
   22.9620  -21.8640  -12.8170 C   0  0  0  0  0  2  0  0  0  0  0  0
   22.5620  -23.1730  -13.3470 N   0  0  0  0  0  0  0  0  0  0  0  0
   23.2340  -23.8640  -14.3020 C   0  0  0  0  0  0  0  0  0  0  0  0
   22.9340  -25.0320  -14.5700 O   0  0  0  0  0  0  0  0  0  0  0  0
   19.5140  -25.2140  -12.8050 N   0  0  0  0  0  0  0  0  0  0  0  0
   20.2670  -24.2930  -13.4170 C   0  0  0  0  0  0  0  0  0  0  0  0
   20.0380  -23.8800  -14.5560 O   0  0  0  0  0  0  0  0  0  0  0  0
   19.7860  -25.5100  -11.8790 H   0  0  0  0  0  0  0  0  0  0  0  0
   18.2690  -25.7580  -13.3290 C   0  0  0  0  0  2  0  0  0  0  0  0
   14.8200  -23.2340  -12.5030 C   0  0  0  0  0  0  0  0  0  0  0  0
   15.8370  -23.3830  -11.5370 C   0  0  0  0  0  3  0  0  0  0  0  0
   16.9540  -24.1940  -11.8020 C   0  0  0  0  0  3  0  0  0  0  0  0
   14.9350  -23.9040  -13.7390 C   0  0  0  0  0  3  0  0  0  0  0  0
   16.0550  -24.7160  -14.0040 C   0  0  0  0  0  3  0  0  0  0  0  0
   17.0690  -24.8670  -13.0380 C   0  0  0  0  0  0  0  0  0  0  0  0
   11.7350  -23.7810  -13.2770 C   0  0  0  0  0  1  0  0  0  0  0  0
   12.3370  -22.6270  -12.5020 C   0  0  0  0  0  0  0  0  0  0  0  0
   11.4770  -21.6790  -11.9860 N   0  0  0  0  0  0  0  0  0  0  0  0
   12.0540  -20.7120  -11.0590 C   0  0  0  0  0  2  0  0  0  0  0  0
   13.8390  -20.9520  -11.2680 S   0  0  0  0  0  0  0  0  0  0  0  0
   13.6230  -22.4430  -12.1720 C   0  0  0  0  0  0  0  0  0  0  0  0
   10.4670  -21.7460  -12.0570 H   0  0  0  0  0  0  0  0  0  0  0  0
   22.8250  -22.0110  -10.4240 O   0  0  0  0  0  0  0  0  0  0  0  0
   23.1030  -22.9150  -10.5310 H   0  0  0  0  0  0  0  0  0  0  0  0
   24.1090  -22.7320  -16.5010 C   0  0  1  0  0  0  0  0  0  0  0  0
   25.3550  -22.0270  -17.0860 C   0  0  0  0  0  1  0  0  0  0  0  0
   23.7190  -23.8820  -17.4610 C   0  0  0  0  0  1  0  0  0  0  0  0
   22.9620  -21.7010  -16.5080 C   0  0  0  0  0  1  0  0  0  0  0  0
  1 52  1  0
  1  2  1  0
  2  3  2  0
  4 19  1  0
  4  6  1  0
  5  4  2  0
  6 11  1  0
  7  9  1  0
  8  5  1  0
  8  7  2  0
  9  6  2  0
 10  7  1  0
 10 14  1  0
 11  2  1  0
 11 15  1  0
 12  1  1  0
 13 10  1  0
 16 17  1  0
 16  5  1  0
 18 16  1  0
 19 21  1  0
 20 19  1  0
 22 21  1  0
 23 22  1  0
 24 25  2  0
 26 23  1  0
 26 24  1  0
 27 26  1  0
 28 24  1  0
 29 28  1  0
 29 30  1  0
 30 44  2  0
 31 29  1  0
 31 36  1  0
 32 33  1  0
 32 31  2  0
 33 34  2  0
 34 36  1  0
 34 35  1  0
 36 37  1  0
 37 43  2  0
 37 38  1  0
 38 39  1  0
 39 40  1  0
 41 42  1  0
 41 39  2  0
 43 41  1  0
 44 45  1  0
 44 43  1  0
 45 46  1  0
 46 47  2  0
 48 47  1  0
 48 49  1  0
 50 48  2  0
 51 50  1  0
 51 45  2  0
 52 58  1  0
 53 61  1  0
 53 54  1  0
 54 55  1  0
 55 78  1  0
 56 55  1  0
 57 56  1  0
 57 53  1  0
 58 57  1  0
 59 58  2  0
 60 63  1  0
 61 60  1  0
 62 61  2  0
 64 70  1  0
 64 60  1  0
 65 76  1  0
 65 66  1  0
 67 66  2  0
 68 65  2  0
 69 68  1  0
 69 70  2  0
 70 67  1  0
 71 72  1  0
 72 76  2  0
 72 73  1  0
 73 74  1  0
 75 74  1  0
 76 75  1  0
 77 73  1  0
 79 78  1  0
 80 52  1  0
 80 81  1  6
 82 80  1  0
 83 80  1  0
M  ISO  4   2 101  11 101  24 100  26 100
M  END
>  <TORSDO>  (125) 
F 17

>  <SCORE>  (125) 
-10.237

>  <name>  (125) 
124

>  <ligand_id>  (125) 
124

>  <original_smiles>  (125) 
[H]OC1([H])C([H])([H])N(C(=O)C([H])(N([H])C(=O)N([H])c2nc(N([H])[H])nc(N([H])[H])c2N([H])C([H])([H])C([H])([H])C([H])([H])N([H])C(=O)C([H])([H])C2([H])N=C(c3c([H])c([H])c(Cl)c([H])c3[H])c3c(sc(C([H])([H])[H])c3C([H])([H])[H])-n3c(C([H])([H])[H])nnc32)C(C([H])([H])[H])(C([H])([H])[H])C([H])([H])[H])C([H])(C(=O)N([H])C([H])([H])c2c([H])c([H])c(C3=C(C([H])([H])[H])N([H])C([H])([H])S3)c([H])c2[H])C1([H])[H]

>  <smiles>  (125) 
[H]OC1([H])C([H])([H])N(C(=O)C([H])(N([H])C(=O)N([H])c2nc(N([H])[H])nc(N([H])[H])c2N([H])C([H])([H])C([H])([H])C([H])([H])N([H])C(=O)C([H])([H])C2([H])N=C(c3c([H])c([H])c(Cl)c([H])c3[H])c3c(sc(C([H])([H])[H])c3C([H])([H])[H])-n3c(C([H])([H])[H])nnc32)C(C([H])([H])[H])(C([H])([H])[H])C([H])([H])[H])C([H])(C(=O)N([H])C([H])([H])c2c([H])c([H])c(C3=C(C([H])([H])[H])N([H])C([H])([H])S3)c([H])c2[H])C1([H])[H]

$$$$
125:0:0
     RDKit          3D

 81 87  0  0  1  0  0  0  0  0999 V2000
   26.8230  -27.5400  -16.7370 C   0  0  0  0  0  3  0  0  0  0  0  0
   25.6330  -28.1430  -17.0450 N   0  0  0  0  0  0  0  0  0  0  0  0
   27.1680  -26.7380  -15.6830 N   0  0  0  0  0  0  0  0  0  0  0  0
   25.5930  -28.7240  -17.8720 H   0  0  0  0  0  0  0  0  0  0  0  0
   28.1210  -26.3980  -15.6850 H   0  0  0  0  0  0  0  0  0  0  0  0
   27.8660  -27.7760  -17.6550 C   0  0  0  0  0  0  0  0  0  0  0  0
   28.7320  -28.7800  -17.4580 N   0  0  0  0  0  0  0  0  0  0  0  0
   28.0130  -26.9830  -18.7290 N   0  0  0  0  0  4  0  0  0  0  0  0
   28.6570  -29.3800  -16.6510 H   0  0  0  0  0  0  0  0  0  0  0  0
   29.4950  -28.9740  -18.0870 H   0  0  0  0  0  0  0  0  0  0  0  0
   27.3830  -26.2120  -18.8990 H   0  0  0  0  0  0  0  0  0  0  0  0
   28.7460  -27.1170  -19.4080 H   0  0  0  0  0  0  0  0  0  0  0  0
   25.4310  -24.5020  -15.3780 N   0  0  0  0  0  0  0  0  0  0  0  0
   26.3080  -24.9680  -14.4970 C   0  0  0  0  0  0  0  0  0  0  0  0
   26.8510  -24.2750  -13.6260 O   0  0  0  0  0  0  0  0  0  0  0  0
   26.3600  -26.3110  -14.6070 N   0  0  0  0  0  0  0  0  0  0  0  0
   25.0910  -25.1580  -16.0620 H   0  0  0  0  0  0  0  0  0  0  0  0
   25.4870  -26.7750  -14.8210 H   0  0  0  0  0  0  0  0  0  0  0  0
   24.4970  -23.4060  -15.2030 C   0  0  0  0  0  3  0  0  0  0  0  0
   21.4100  -23.7680  -12.7870 C   0  0  0  0  0  3  0  0  0  0  0  0
   20.9240  -22.5510  -11.9850 C   0  0  0  0  0  2  0  0  0  0  0  0
   22.1660  -21.7080  -11.7850 C   0  0  0  0  0  3  0  0  0  0  0  0
   23.0380  -21.9970  -13.0080 C   0  0  0  0  0  2  0  0  0  0  0  0
   22.5900  -23.2900  -13.5360 N   0  0  0  0  0  0  0  0  0  0  0  0
   23.2500  -24.0080  -14.4800 C   0  0  0  0  0  0  0  0  0  0  0  0
   22.9220  -25.1680  -14.7580 O   0  0  0  0  0  0  0  0  0  0  0  0
   19.4790  -25.2350  -13.0540 N   0  0  0  0  0  0  0  0  0  0  0  0
   20.2520  -24.3130  -13.6390 C   0  0  0  0  0  0  0  0  0  0  0  0
   20.0330  -23.8670  -14.7670 O   0  0  0  0  0  0  0  0  0  0  0  0
   19.7420  -25.5580  -12.1320 H   0  0  0  0  0  0  0  0  0  0  0  0
   18.2230  -25.7410  -13.5910 C   0  0  0  0  0  2  0  0  0  0  0  0
   14.8180  -23.1970  -12.6540 C   0  0  0  0  0  0  0  0  0  0  0  0
   15.8420  -23.3870  -11.7050 C   0  0  0  0  0  3  0  0  0  0  0  0
   16.9450  -24.2050  -12.0050 C   0  0  0  0  0  3  0  0  0  0  0  0
   14.9100  -23.8310  -13.9110 C   0  0  0  0  0  3  0  0  0  0  0  0
   16.0160  -24.6500  -14.2110 C   0  0  0  0  0  3  0  0  0  0  0  0
   17.0380  -24.8430  -13.2610 C   0  0  0  0  0  0  0  0  0  0  0  0
   11.7130  -23.7090  -13.3690 C   0  0  0  0  0  1  0  0  0  0  0  0
   12.3400  -22.5680  -12.5910 C   0  0  0  0  0  0  0  0  0  0  0  0
   11.5010  -21.6200  -12.0440 N   0  0  0  0  0  0  0  0  0  0  0  0
   12.1050  -20.6710  -11.1170 C   0  0  0  0  0  2  0  0  0  0  0  0
   13.8830  -20.9230  -11.3690 S   0  0  0  0  0  0  0  0  0  0  0  0
   13.6350  -22.4000  -12.2880 C   0  0  0  0  0  0  0  0  0  0  0  0
   10.4870  -21.6810  -12.0930 H   0  0  0  0  0  0  0  0  0  0  0  0
   22.8570  -22.1200  -10.6170 O   0  0  0  0  0  0  0  0  0  0  0  0
   23.0830  -23.0410  -10.7060 H   0  0  0  0  0  0  0  0  0  0  0  0
   24.1890  -22.8640  -16.6460 C   0  0  1  0  0  0  0  0  0  0  0  0
   25.4600  -22.1770  -17.1990 C   0  0  0  0  0  1  0  0  0  0  0  0
   23.7750  -23.9760  -17.6450 C   0  0  0  0  0  1  0  0  0  0  0  0
   23.0730  -21.8010  -16.6320 C   0  0  0  0  0  1  0  0  0  0  0  0
   24.4220  -28.0140  -16.3540 O   0  0  0  0  0  0  0  0  0  0  0  0
   23.2930  -28.4090  -17.1970 C   0  0  0  0  0  2  0  0  0  0  0  0
   22.6470  -29.7790  -16.8050 C   0  0  0  0  0  2  0  0  0  0  0  0
   20.6630  -31.1930  -17.0090 C   0  0  0  0  0  0  0  0  0  0  0  0
   19.8690  -30.8650  -16.1290 O   0  0  0  0  0  0  0  0  0  0  0  0
   21.4610  -30.2490  -17.5630 N   0  0  0  0  0  0  0  0  0  0  0  0
   20.9300  -29.4560  -17.8970 H   0  0  0  0  0  0  0  0  0  0  0  0
   20.8650  -32.6990  -17.3220 C   0  0  0  0  0  2  0  0  0  0  0  0
   21.3220  -33.4970  -16.0630 C   0  0  0  0  0  3  0  0  0  0  0  0
   22.6480  -33.0050  -15.6980 N   0  0  0  0  0  0  0  0  0  0  0  0
   21.3650  -35.0160  -16.2030 C   0  0  0  0  0  0  0  0  0  0  0  0
   21.1510  -35.7280  -17.3160 N   0  0  0  0  0  0  0  0  0  0  0  0
   21.3960  -37.0470  -16.9740 N   0  0  0  0  0  0  0  0  0  0  0  0
   21.7450  -37.0300  -15.6840 C   0  0  0  0  0  0  0  0  0  0  0  0
   22.1620  -38.2580  -14.9300 C   0  0  0  0  0  1  0  0  0  0  0  0
   21.7080  -35.7900  -15.1490 N   0  0  0  0  0  0  0  0  0  0  0  0
   21.9530  -35.3560  -13.8290 C   0  0  0  0  0  0  0  0  0  0  0  0
   21.4530  -36.1810  -12.3870 S   0  0  0  0  0  0  0  0  0  0  0  0
   22.0570  -34.8900  -11.3850 C   0  0  0  0  0  0  0  0  0  0  0  0
   21.9220  -34.9870   -9.8990 C   0  0  0  0  0  1  0  0  0  0  0  0
   22.5980  -33.8650  -12.1320 C   0  0  0  0  0  0  0  0  0  0  0  0
   23.1260  -32.5980  -11.5090 C   0  0  0  0  0  1  0  0  0  0  0  0
   22.5760  -34.1620  -13.5400 C   0  0  0  0  0  0  0  0  0  0  0  0
   23.1870  -33.2690  -14.5710 C   0  0  0  0  0  0  0  0  0  0  0  0
   24.5130  -32.6720  -14.3030 C   0  0  0  0  0  0  0  0  0  0  0  0
   25.5570  -33.4600  -13.7800 C   0  0  0  0  0  3  0  0  0  0  0  0
   26.8100  -32.8730  -13.5090 C   0  0  0  0  0  3  0  0  0  0  0  0
   27.0250  -31.5080  -13.7770 C   0  0  0  0  0  0  0  0  0  0  0  0
   28.5550  -30.7870  -13.4490 Cl  0  0  0  0  0  0  0  0  0  0  0  0
   25.9870  -30.7190  -14.2920 C   0  0  0  0  0  3  0  0  0  0  0  0
   24.7330  -31.3000  -14.5310 C   0  0  0  0  0  3  0  0  0  0  0  0
  1  6  1  0
  1  3  1  0
  2  1  1  0
  2 51  1  0
  3 16  1  0
  4  2  1  0
  5  3  1  0
  6  7  1  0
  7  9  1  0
  8  6  2  0
 10  7  1  0
 11  8  1  0
 12  8  1  0
 13 19  1  0
 13 14  1  0
 14 15  2  0
 16 14  1  0
 17 13  1  0
 18 16  1  0
 19 25  1  0
 20 28  1  0
 20 21  1  0
 21 22  1  0
 22 45  1  0
 23 22  1  0
 24 23  1  0
 24 20  1  0
 25 24  1  0
 26 25  2  0
 27 30  1  0
 28 27  1  0
 29 28  2  0
 31 37  1  0
 31 27  1  0
 32 43  1  0
 32 33  1  0
 34 33  2  0
 35 32  2  0
 36 35  1  0
 36 37  2  0
 37 34  1  0
 38 39  1  0
 39 43  2  0
 39 40  1  0
 40 41  1  0
 42 41  1  0
 43 42  1  0
 44 40  1  0
 46 45  1  0
 47 50  1  1
 47 19  1  0
 48 47  1  0
 49 47  1  0
 52 53  1  0
 52 51  1  0
 54 55  2  0
 56 54  1  0
 56 53  1  0
 57 56  1  0
 58 54  1  0
 59 58  1  0
 59 60  1  0
 60 74  2  0
 61 59  1  0
 61 66  1  0
 62 63  1  0
 62 61  2  0
 63 64  2  0
 64 66  1  0
 64 65  1  0
 66 67  1  0
 67 73  2  0
 67 68  1  0
 68 69  1  0
 69 70  1  0
 71 72  1  0
 71 69  2  0
 73 71  1  0
 74 75  1  0
 74 73  1  0
 75 76  1  0
 76 77  2  0
 78 77  1  0
 78 79  1  0
 80 78  2  0
 81 75  2  0
 81 80  1  0
M  ISO  4  14 101  16 101  54 100  56 100
M  END
>  <TORSDO>  (126) 
F 17

>  <SCORE>  (126) 
-10.726

>  <name>  (126) 
125

>  <ligand_id>  (126) 
125

>  <original_smiles>  (126) 
[H]OC1([H])C([H])([H])N(C(=O)C([H])(N([H])C(=O)N([H])[N+]([H])=C(C(N([H])[H])=[N+]([H])[H])N([H])OC([H])([H])C([H])([H])N([H])C(=O)C([H])([H])C2([H])N=C(c3c([H])c([H])c(Cl)c([H])c3[H])c3c(sc(C([H])([H])[H])c3C([H])([H])[H])-n3c(C([H])([H])[H])nnc32)C(C([H])([H])[H])(C([H])([H])[H])C([H])([H])[H])C([H])(C(=O)N([H])C([H])([H])c2c([H])c([H])c(C3=C(C([H])([H])[H])N([H])C([H])([H])S3)c([H])c2[H])C1([H])[H]

>  <smiles>  (126) 
[H]OC1([H])C([H])([H])N(C(=O)C([H])(N([H])C(=O)N([H])[N+]([H])=C(C(N([H])[H])=[N+]([H])[H])N([H])OC([H])([H])C([H])([H])N([H])C(=O)C([H])([H])C2([H])N=C(c3c([H])c([H])c(Cl)c([H])c3[H])c3c(sc(C([H])([H])[H])c3C([H])([H])[H])-n3c(C([H])([H])[H])nnc32)C(C([H])([H])[H])(C([H])([H])[H])C([H])([H])[H])C([H])(C(=O)N([H])C([H])([H])c2c([H])c([H])c(C3=C(C([H])([H])[H])N([H])C([H])([H])S3)c([H])c2[H])C1([H])[H]

$$$$
126:0:0
     RDKit          3D

 80 86  0  0  1  0  0  0  0  0999 V2000
   24.1450  -27.5110  -14.9970 C   0  0  0  0  0  0  0  0  0  0  0  0
   23.7050  -28.1740  -13.9210 N   0  0  0  0  0  4  0  0  0  0  0  0
   23.4360  -27.6430  -16.1640 N   0  0  0  0  0  0  0  0  0  0  0  0
   25.3000  -26.7860  -14.8160 N   0  0  0  0  0  0  0  0  0  0  0  0
   22.8200  -28.6470  -13.9060 H   0  0  0  0  0  0  0  0  0  0  0  0
   24.2080  -28.1540  -13.0470 H   0  0  0  0  0  0  0  0  0  0  0  0
   23.5430  -26.9210  -16.8590 H   0  0  0  0  0  0  0  0  0  0  0  0
   25.6800  -26.6850  -13.8840 H   0  0  0  0  0  0  0  0  0  0  0  0
   20.4240  -31.0950  -16.9370 C   0  0  0  0  0  0  0  0  0  0  0  0
   20.0620  -30.7450  -15.8160 O   0  0  0  0  0  0  0  0  0  0  0  0
   22.0990  -29.2130  -17.5270 C   0  0  0  0  0  3  0  0  0  0  0  0
   22.7610  -29.2960  -19.9690 C   0  0  0  0  0  1  0  0  0  0  0  0
   22.8150  -28.7790  -18.5890 N   0  0  0  0  0  0  0  0  0  0  0  0
   22.3380  -28.6030  -16.3220 N   0  0  0  0  0  0  0  0  0  0  0  0
   21.2520  -30.2600  -17.7900 N   0  0  0  0  0  0  0  0  0  0  0  0
   23.4780  -28.0320  -18.4590 H   0  0  0  0  0  0  0  0  0  0  0  0
   21.7080  -28.7800  -15.5510 H   0  0  0  0  0  0  0  0  0  0  0  0
   21.4320  -30.5850  -18.7250 H   0  0  0  0  0  0  0  0  0  0  0  0
   20.3760  -32.5700  -17.4040 C   0  0  0  0  0  2  0  0  0  0  0  0
   20.8950  -33.4950  -16.2620 C   0  0  0  0  0  3  0  0  0  0  0  0
   22.2600  -33.0890  -15.9130 N   0  0  0  0  0  0  0  0  0  0  0  0
   20.8720  -34.9920  -16.5300 C   0  0  0  0  0  0  0  0  0  0  0  0
   20.6250  -35.5980  -17.6970 N   0  0  0  0  0  0  0  0  0  0  0  0
   20.8190  -36.9490  -17.4650 N   0  0  0  0  0  0  0  0  0  0  0  0
   21.1830  -37.0500  -16.1820 C   0  0  0  0  0  0  0  0  0  0  0  0
   21.5540  -38.3480  -15.5280 C   0  0  0  0  0  1  0  0  0  0  0  0
   21.2070  -35.8570  -15.5510 N   0  0  0  0  0  0  0  0  0  0  0  0
   21.4970  -35.5350  -14.2070 C   0  0  0  0  0  0  0  0  0  0  0  0
   20.9780  -36.4390  -12.8210 S   0  0  0  0  0  0  0  0  0  0  0  0
   21.6560  -35.2540  -11.7380 C   0  0  0  0  0  0  0  0  0  0  0  0
   21.5370  -35.4560  -10.2620 C   0  0  0  0  0  1  0  0  0  0  0  0
   22.2360  -34.2040  -12.4170 C   0  0  0  0  0  0  0  0  0  0  0  0
   22.8300  -33.0110  -11.7110 C   0  0  0  0  0  1  0  0  0  0  0  0
   22.1830  -34.3960  -13.8430 C   0  0  0  0  0  0  0  0  0  0  0  0
   22.8160  -33.4610  -14.8240 C   0  0  0  0  0  0  0  0  0  0  0  0
   24.1740  -32.9460  -14.5450 C   0  0  0  0  0  0  0  0  0  0  0  0
   25.1060  -33.7330  -13.8400 C   0  0  0  0  0  3  0  0  0  0  0  0
   26.3850  -33.2210  -13.5510 C   0  0  0  0  0  3  0  0  0  0  0  0
   26.7360  -31.9230  -13.9660 C   0  0  0  0  0  0  0  0  0  0  0  0
   28.2970  -31.2890  -13.6060 Cl  0  0  0  0  0  0  0  0  0  0  0  0
   25.8150  -31.1410  -14.6830 C   0  0  0  0  0  3  0  0  0  0  0  0
   24.5400  -31.6550  -14.9730 C   0  0  0  0  0  3  0  0  0  0  0  0
   25.2120  -24.1850  -16.3390 N   0  0  0  0  0  0  0  0  0  0  0  0
   26.1380  -24.7770  -15.6070 C   0  0  0  0  0  0  0  0  0  0  0  0
   26.7940  -24.1990  -14.7270 O   0  0  0  0  0  0  0  0  0  0  0  0
   26.0490  -26.1070  -15.8130 N   0  0  0  0  0  0  0  0  0  0  0  0
   24.8560  -24.6950  -17.1300 H   0  0  0  0  0  0  0  0  0  0  0  0
   25.6930  -26.4630  -16.6850 H   0  0  0  0  0  0  0  0  0  0  0  0
   24.2800  -23.1650  -15.8680 C   0  0  0  0  0  3  0  0  0  0  0  0
   21.4840  -23.8340  -13.1640 C   0  0  0  0  0  3  0  0  0  0  0  0
   21.0780  -22.7140  -12.1920 C   0  0  0  0  0  2  0  0  0  0  0  0
   22.3290  -21.8730  -12.0460 C   0  0  0  0  0  3  0  0  0  0  0  0
   23.0640  -22.0200  -13.3780 C   0  0  0  0  0  2  0  0  0  0  0  0
   22.5720  -23.2620  -13.9850 N   0  0  0  0  0  0  0  0  0  0  0  0
   23.1280  -23.8630  -15.0670 C   0  0  0  0  0  0  0  0  0  0  0  0
   22.7790  -24.9940  -15.4240 O   0  0  0  0  0  0  0  0  0  0  0  0
   19.5300  -25.2840  -13.3490 N   0  0  0  0  0  0  0  0  0  0  0  0
   20.2420  -24.3140  -13.9330 C   0  0  0  0  0  0  0  0  0  0  0  0
   19.9090  -23.7770  -14.9920 O   0  0  0  0  0  0  0  0  0  0  0  0
   19.8810  -25.6770  -12.4870 H   0  0  0  0  0  0  0  0  0  0  0  0
   18.2220  -25.7500  -13.7950 C   0  0  0  0  0  2  0  0  0  0  0  0
   14.9660  -23.1260  -12.5870 C   0  0  0  0  0  0  0  0  0  0  0  0
   16.0390  -23.3730  -11.7070 C   0  0  0  0  0  3  0  0  0  0  0  0
   17.0940  -24.2180  -12.0950 C   0  0  0  0  0  3  0  0  0  0  0  0
   14.9600  -23.7290  -13.8630 C   0  0  0  0  0  3  0  0  0  0  0  0
   16.0180  -24.5740  -14.2510 C   0  0  0  0  0  3  0  0  0  0  0  0
   17.0900  -24.8230  -13.3690 C   0  0  0  0  0  0  0  0  0  0  0  0
   11.8130  -23.4760  -13.1820 C   0  0  0  0  0  1  0  0  0  0  0  0
   12.5220  -22.4030  -12.3810 C   0  0  0  0  0  0  0  0  0  0  0  0
   11.7470  -21.4490  -11.7520 N   0  0  0  0  0  0  0  0  0  0  0  0
   12.4320  -20.5730  -10.8080 C   0  0  0  0  0  2  0  0  0  0  0  0
   14.1850  -20.8830  -11.1530 S   0  0  0  0  0  0  0  0  0  0  0  0
   13.8350  -22.3010  -12.1280 C   0  0  0  0  0  0  0  0  0  0  0  0
   10.7330  -21.4670  -11.7570 H   0  0  0  0  0  0  0  0  0  0  0  0
   23.1460  -22.3860  -11.0060 O   0  0  0  0  0  0  0  0  0  0  0  0
   23.3660  -23.2890  -11.2110 H   0  0  0  0  0  0  0  0  0  0  0  0
   23.7930  -22.4060  -17.1490 C   0  0  1  0  0  0  0  0  0  0  0  0
   24.9960  -21.6540  -17.7670 C   0  0  0  0  0  1  0  0  0  0  0  0
   23.2100  -23.3530  -18.2280 C   0  0  0  0  0  1  0  0  0  0  0  0
   22.7220  -21.3490  -16.8150 C   0  0  0  0  0  1  0  0  0  0  0  0
  1  4  1  0
  1  2  2  0
  2  5  1  0
  2  6  1  0
  3  1  1  0
  4  8  1  0
  7  3  1  0
  9 10  2  0
 11 13  1  0
 11 14  1  0
 12 13  1  0
 13 16  1  0
 14  3  1  0
 14 17  1  0
 15 11  1  0
 15  9  1  0
 18 15  1  0
 19  9  1  0
 20 19  1  0
 20 21  1  0
 21 35  2  0
 22 20  1  0
 22 27  1  0
 23 24  1  0
 23 22  2  0
 24 25  2  0
 25 27  1  0
 25 26  1  0
 27 28  1  0
 28 34  2  0
 28 29  1  0
 29 30  1  0
 30 31  1  0
 32 30  2  0
 32 33  1  0
 34 32  1  0
 35 36  1  0
 35 34  1  0
 36 37  1  0
 37 38  2  0
 39 40  1  0
 39 38  1  0
 41 39  2  0
 42 41  1  0
 42 36  2  0
 43 49  1  0
 43 44  1  0
 44 45  2  0
 46 44  1  0
 46  4  1  0
 47 43  1  0
 48 46  1  0
 49 55  1  0
 50 58  1  0
 50 51  1  0
 51 52  1  0
 52 75  1  0
 53 52  1  0
 54 53  1  0
 54 50  1  0
 55 54  1  0
 56 55  2  0
 57 60  1  0
 58 57  1  0
 59 58  2  0
 61 67  1  0
 61 57  1  0
 62 73  1  0
 62 63  1  0
 64 63  2  0
 65 62  2  0
 66 65  1  0
 66 67  2  0
 67 64  1  0
 68 69  1  0
 69 73  2  0
 69 70  1  0
 70 71  1  0
 72 71  1  0
 73 72  1  0
 74 70  1  0
 76 75  1  0
 77 80  1  1
 77 49  1  0
 78 77  1  0
 79 77  1  0
M  ISO  4   9 100  15 100  44 101  46 101
M  END
>  <TORSDO>  (127) 
F 13

>  <SCORE>  (127) 
-10.771

>  <name>  (127) 
126

>  <ligand_id>  (127) 
126

>  <original_smiles>  (127) 
[H]OC1([H])C([H])([H])N(C(=O)C([H])(N([H])C(=O)N([H])[N+]([H])=C(N([H])[H])N([H])N([H])C(N([H])C([H])([H])[H])=[N+]([H])C(=O)C([H])([H])C2([H])N=C(c3c([H])c([H])c(Cl)c([H])c3[H])c3c(sc(C([H])([H])[H])c3C([H])([H])[H])-n3c(C([H])([H])[H])nnc32)C(C([H])([H])[H])(C([H])([H])[H])C([H])([H])[H])C([H])(C(=O)N([H])C([H])([H])c2c([H])c([H])c(C3=C(C([H])([H])[H])N([H])C([H])([H])S3)c([H])c2[H])C1([H])[H]

>  <smiles>  (127) 
[H]OC1([H])C([H])([H])N(C(=O)C([H])(N([H])C(=O)N([H])[N+]([H])=C(N([H])[H])N([H])N([H])C(N([H])C([H])([H])[H])=[N+]([H])C(=O)C([H])([H])C2([H])N=C(c3c([H])c([H])c(Cl)c([H])c3[H])c3c(sc(C([H])([H])[H])c3C([H])([H])[H])-n3c(C([H])([H])[H])nnc32)C(C([H])([H])[H])(C([H])([H])[H])C([H])([H])[H])C([H])(C(=O)N([H])C([H])([H])c2c([H])c([H])c(C3=C(C([H])([H])[H])N([H])C([H])([H])S3)c([H])c2[H])C1([H])[H]

$$$$
127:0:0
     RDKit          3D

 86 92  0  0  1  0  0  0  0  0999 V2000
   25.7480  -24.6730  -15.4760 N   0  0  0  0  0  0  0  0  0  0  0  0
   26.6170  -25.3830  -14.7810 C   0  0  0  0  0  0  0  0  0  0  0  0
   27.1900  -24.8880  -13.7910 O   0  0  0  0  0  0  0  0  0  0  0  0
   25.9880  -27.3280  -16.3720 C   0  0  0  0  0  0  0  0  0  0  0  0
   25.4400  -26.6250  -17.3390 N   0  0  0  0  0  0  0  0  0  0  0  0
   26.7070  -26.6750  -15.2800 N   0  0  0  0  0  0  0  0  0  0  0  0
   25.9090  -28.7340  -16.3050 N   0  0  0  0  0  0  0  0  0  0  0  0
   25.3990  -25.1580  -16.2950 H   0  0  0  0  0  0  0  0  0  0  0  0
   27.3420  -27.2450  -14.7330 H   0  0  0  0  0  0  0  0  0  0  0  0
   26.6190  -29.2950  -15.8360 H   0  0  0  0  0  0  0  0  0  0  0  0
   24.2920  -30.4610  -17.1080 C   0  0  0  0  0  2  0  0  0  0  0  0
   23.0600  -31.0640  -17.1880 N   0  0  0  0  0  0  0  0  0  0  0  0
   24.6360  -29.4250  -16.2810 N   0  0  0  0  0  0  0  0  0  0  0  0
   22.9350  -31.8510  -17.8170 H   0  0  0  0  0  0  0  0  0  0  0  0
   23.9370  -29.0960  -15.6200 H   0  0  0  0  0  0  0  0  0  0  0  0
   20.7300  -31.2630  -16.4400 C   0  0  0  0  0  0  0  0  0  0  0  0
   19.8240  -30.7430  -15.7870 O   0  0  0  0  0  0  0  0  0  0  0  0
   21.9580  -30.6640  -16.3620 N   0  0  0  0  0  0  0  0  0  0  0  0
   22.3270  -30.8780  -15.4460 H   0  0  0  0  0  0  0  0  0  0  0  0
   20.5800  -32.7510  -16.8480 C   0  0  0  0  0  2  0  0  0  0  0  0
   21.0210  -33.6300  -15.6400 C   0  0  0  0  0  3  0  0  0  0  0  0
   22.3900  -33.2340  -15.3120 N   0  0  0  0  0  0  0  0  0  0  0  0
   20.9720  -35.1320  -15.8170 C   0  0  0  0  0  0  0  0  0  0  0  0
   20.6960  -35.8000  -16.9430 N   0  0  0  0  0  0  0  0  0  0  0  0
   20.8980  -37.1320  -16.6380 N   0  0  0  0  0  0  0  0  0  0  0  0
   21.2890  -37.1630  -15.3600 C   0  0  0  0  0  0  0  0  0  0  0  0
   21.6860  -38.4230  -14.6480 C   0  0  0  0  0  1  0  0  0  0  0  0
   21.3160  -35.9420  -14.7910 N   0  0  0  0  0  0  0  0  0  0  0  0
   21.6270  -35.5520  -13.4700 C   0  0  0  0  0  0  0  0  0  0  0  0
   21.1430  -36.3820  -12.0240 S   0  0  0  0  0  0  0  0  0  0  0  0
   21.8430  -35.1420  -11.0180 C   0  0  0  0  0  0  0  0  0  0  0  0
   21.7670  -35.2540   -9.5280 C   0  0  0  0  0  1  0  0  0  0  0  0
   22.3990  -34.1270  -11.7630 C   0  0  0  0  0  0  0  0  0  0  0  0
   23.0000  -32.9000  -11.1350 C   0  0  0  0  0  1  0  0  0  0  0  0
   22.3160  -34.4000  -13.1740 C   0  0  0  0  0  0  0  0  0  0  0  0
   22.9380  -33.5280  -14.2020 C   0  0  0  0  0  0  0  0  0  0  0  0
   24.2800  -32.9780  -13.9610 C   0  0  0  0  0  0  0  0  0  0  0  0
   25.3610  -33.8390  -13.6760 C   0  0  0  0  0  3  0  0  0  0  0  0
   26.6420  -33.3020  -13.4410 C   0  0  0  0  0  3  0  0  0  0  0  0
   26.8420  -31.9100  -13.4730 C   0  0  0  0  0  0  0  0  0  0  0  0
   28.4110  -31.2380  -13.2120 Cl  0  0  0  0  0  0  0  0  0  0  0  0
   25.7490  -31.0590  -13.6730 C   0  0  0  0  0  3  0  0  0  0  0  0
   24.4700  -31.5910  -13.9300 C   0  0  0  0  0  3  0  0  0  0  0  0
   24.6920  -27.2880  -18.3710 N   0  0  0  0  0  4  0  0  0  0  0  0
   25.2060  -28.1180  -18.6400 H   0  0  0  0  0  0  0  0  0  0  0  0
   24.6230  -26.6990  -19.1910 H   0  0  0  0  0  0  0  0  0  0  0  0
   22.3970  -27.1830  -18.7420 C   0  0  0  0  0  0  0  0  0  0  0  0
   23.3600  -27.6710  -18.0330 N   0  0  0  0  0  2  0  0  0  0  0  0
   21.1260  -27.6980  -18.5910 N   0  0  0  0  0  0  0  0  0  0  0  0
   22.4750  -26.1630  -19.6630 N   0  0  0  0  0  4  0  0  0  0  0  0
   20.8910  -28.4050  -17.9030 H   0  0  0  0  0  0  0  0  0  0  0  0
   20.3010  -27.4140  -19.1090 H   0  0  0  0  0  0  0  0  0  0  0  0
   22.9860  -25.2980  -19.5010 H   0  0  0  0  0  0  0  0  0  0  0  0
   21.6620  -25.9190  -20.2290 H   0  0  0  0  0  0  0  0  0  0  0  0
   24.9050  -23.5490  -15.1540 C   0  0  0  0  0  3  0  0  0  0  0  0
   21.7430  -23.7350  -12.8220 C   0  0  0  0  0  3  0  0  0  0  0  0
   21.2820  -22.4730  -12.0740 C   0  0  0  0  0  2  0  0  0  0  0  0
   22.5530  -21.6760  -11.8710 C   0  0  0  0  0  3  0  0  0  0  0  0
   23.4470  -22.0430  -13.0470 C   0  0  0  0  0  2  0  0  0  0  0  0
   22.9600  -23.3280  -13.5560 N   0  0  0  0  0  0  0  0  0  0  0  0
   23.6310  -24.1080  -14.4390 C   0  0  0  0  0  0  0  0  0  0  0  0
   23.2760  -25.2730  -14.6620 O   0  0  0  0  0  0  0  0  0  0  0  0
   19.7940  -25.1720  -13.1120 N   0  0  0  0  0  0  0  0  0  0  0  0
   20.5890  -24.2620  -13.6900 C   0  0  0  0  0  0  0  0  0  0  0  0
   20.3900  -23.8050  -14.8170 O   0  0  0  0  0  0  0  0  0  0  0  0
   20.0370  -25.4920  -12.1890 H   0  0  0  0  0  0  0  0  0  0  0  0
   18.5410  -25.6620  -13.6610 C   0  0  0  0  0  2  0  0  0  0  0  0
   15.1440  -23.1500  -12.6200 C   0  0  0  0  0  0  0  0  0  0  0  0
   16.1810  -23.3600  -11.6890 C   0  0  0  0  0  3  0  0  0  0  0  0
   17.2830  -24.1640  -12.0260 C   0  0  0  0  0  3  0  0  0  0  0  0
   15.2190  -23.7540  -13.8920 C   0  0  0  0  0  3  0  0  0  0  0  0
   16.3230  -24.5580  -14.2270 C   0  0  0  0  0  3  0  0  0  0  0  0
   17.3590  -24.7730  -13.2970 C   0  0  0  0  0  0  0  0  0  0  0  0
   12.0290  -23.6660  -13.2990 C   0  0  0  0  0  1  0  0  0  0  0  0
   12.6610  -22.5400  -12.5030 C   0  0  0  0  0  0  0  0  0  0  0  0
   11.8240  -21.6060  -11.9290 N   0  0  0  0  0  0  0  0  0  0  0  0
   12.4370  -20.6640  -10.9990 C   0  0  0  0  0  2  0  0  0  0  0  0
   14.2140  -20.9090  -11.2690 S   0  0  0  0  0  0  0  0  0  0  0  0
   13.9620  -22.3710  -12.2120 C   0  0  0  0  0  0  0  0  0  0  0  0
   10.8110  -21.6790  -11.9580 H   0  0  0  0  0  0  0  0  0  0  0  0
   23.1960  -22.0650  -10.6720 O   0  0  0  0  0  0  0  0  0  0  0  0
   23.4080  -22.9910  -10.7270 H   0  0  0  0  0  0  0  0  0  0  0  0
   24.6020  -22.8750  -16.5470 C   0  0  1  0  0  0  0  0  0  0  0  0
   25.9220  -22.3340  -17.1540 C   0  0  0  0  0  1  0  0  0  0  0  0
   23.9700  -23.8410  -17.5790 C   0  0  0  0  0  1  0  0  0  0  0  0
   23.6450  -21.6790  -16.4100 C   0  0  0  0  0  1  0  0  0  0  0  0
  1 55  1  0
  1  2  1  0
  2  3  2  0
  4  7  1  0
  4  6  1  0
  5  4  2  0
  6  2  1  0
  6  9  1  0
  7 13  1  0
  7 10  1  0
  8  1  1  0
 11 13  1  0
 12 11  1  0
 12 18  1  0
 13 15  1  0
 14 12  1  0
 16 18  1  0
 16 17  2  0
 18 19  1  0
 20 16  1  0
 21 20  1  0
 21 22  1  0
 22 36  2  0
 23 21  1  0
 23 28  1  0
 24 25  1  0
 24 23  2  0
 25 26  2  0
 26 28  1  0
 26 27  1  0
 28 29  1  0
 29 35  2  0
 29 30  1  0
 30 31  1  0
 31 32  1  0
 33 34  1  0
 33 31  2  0
 35 33  1  0
 36 37  1  0
 36 35  1  0
 37 43  2  0
 37 38  1  0
 38 39  2  0
 40 39  1  0
 40 41  1  0
 42 40  2  0
 43 42  1  0
 44 48  1  0
 44  5  1  0
 45 44  1  0
 46 44  1  0
 47 49  1  0
 47 48  1  0
 49 51  1  0
 50 53  1  0
 50 47  2  0
 52 49  1  0
 54 50  1  0
 55 61  1  0
 56 64  1  0
 56 57  1  0
 57 58  1  0
 58 81  1  0
 59 58  1  0
 60 59  1  0
 60 56  1  0
 61 60  1  0
 62 61  2  0
 63 66  1  0
 64 63  1  0
 65 64  2  0
 67 73  1  0
 67 63  1  0
 68 79  1  0
 68 69  1  0
 70 69  2  0
 71 68  2  0
 72 71  1  0
 72 73  2  0
 73 70  1  0
 74 75  1  0
 75 79  2  0
 75 76  1  0
 76 77  1  0
 78 77  1  0
 79 78  1  0
 80 76  1  0
 82 81  1  0
 83 86  1  1
 83 55  1  0
 84 83  1  0
 85 83  1  0
M  ISO  4   2 101   6 101  16 100  18 100
M  END
>  <TORSDO>  (128) 
F 15

>  <SCORE>  (128) 
-11.782

>  <name>  (128) 
127

>  <ligand_id>  (128) 
127

>  <original_smiles>  (128) 
[H]OC1([H])C([H])([H])N(C(=O)C([H])(N([H])C(=O)N([H])C(=N[N+]([H])([H])N=C(N([H])[H])N([H])[H])N([H])[N+]([H])=C([H])N([H])N([H])C(=O)C([H])([H])C2([H])N=C(c3c([H])c([H])c(Cl)c([H])c3[H])c3c(sc(C([H])([H])[H])c3C([H])([H])[H])-n3c(C([H])([H])[H])nnc32)C(C([H])([H])[H])(C([H])([H])[H])C([H])([H])[H])C([H])(C(=O)N([H])C([H])([H])c2c([H])c([H])c(C3=C(C([H])([H])[H])N([H])C([H])([H])S3)c([H])c2[H])C1([H])[H]

>  <smiles>  (128) 
[H]OC1([H])C([H])([H])N(C(=O)C([H])(N([H])C(=O)N([H])C(=N[N+]([H])([H])N=C(N([H])[H])N([H])[H])N([H])[N+]([H])=C([H])N([H])N([H])C(=O)C([H])([H])C2([H])N=C(c3c([H])c([H])c(Cl)c([H])c3[H])c3c(sc(C([H])([H])[H])c3C([H])([H])[H])-n3c(C([H])([H])[H])nnc32)C(C([H])([H])[H])(C([H])([H])[H])C([H])([H])[H])C([H])(C(=O)N([H])C([H])([H])c2c([H])c([H])c(C3=C(C([H])([H])[H])N([H])C([H])([H])S3)c([H])c2[H])C1([H])[H]

$$$$
128:0:0
     RDKit          3D

 80 86  0  0  1  0  0  0  0  0999 V2000
   25.8850  -26.9870  -16.1540 N   0  0  0  0  0  4  0  0  0  0  0  0
   26.4010  -26.8840  -17.0160 H   0  0  0  0  0  0  0  0  0  0  0  0
   25.0430  -26.4190  -16.2090 H   0  0  0  0  0  0  0  0  0  0  0  0
   25.6740  -24.5340  -15.5300 N   0  0  0  0  0  0  0  0  0  0  0  0
   26.5520  -25.1110  -14.7080 C   0  0  0  0  0  0  0  0  0  0  0  0
   27.0490  -24.4830  -13.7600 O   0  0  0  0  0  0  0  0  0  0  0  0
   26.7700  -26.4310  -14.9870 N   0  0  0  0  0  0  0  0  0  0  0  0
   25.5610  -24.8870  -16.4610 H   0  0  0  0  0  0  0  0  0  0  0  0
   27.3930  -27.0510  -14.4940 H   0  0  0  0  0  0  0  0  0  0  0  0
   24.7140  -23.4780  -15.2790 C   0  0  0  0  0  3  0  0  0  0  0  0
   21.6590  -23.7560  -12.8090 C   0  0  0  0  0  3  0  0  0  0  0  0
   21.1810  -22.5010  -12.0610 C   0  0  0  0  0  2  0  0  0  0  0  0
   22.4260  -21.6520  -11.9140 C   0  0  0  0  0  3  0  0  0  0  0  0
   23.2830  -21.9970  -13.1320 C   0  0  0  0  0  2  0  0  0  0  0  0
   22.8320  -23.3150  -13.5920 N   0  0  0  0  0  0  0  0  0  0  0  0
   23.4930  -24.0710  -14.5040 C   0  0  0  0  0  0  0  0  0  0  0  0
   23.1850  -25.2500  -14.7200 O   0  0  0  0  0  0  0  0  0  0  0  0
   19.7280  -25.2350  -12.9900 N   0  0  0  0  0  0  0  0  0  0  0  0
   20.4900  -24.3360  -13.6220 C   0  0  0  0  0  0  0  0  0  0  0  0
   20.2520  -23.9340  -14.7630 O   0  0  0  0  0  0  0  0  0  0  0  0
   20.0040  -25.5190  -12.0600 H   0  0  0  0  0  0  0  0  0  0  0  0
   18.4640  -25.7640  -13.4870 C   0  0  0  0  0  2  0  0  0  0  0  0
   15.0620  -23.2060  -12.5730 C   0  0  0  0  0  0  0  0  0  0  0  0
   16.0950  -23.3740  -11.6280 C   0  0  0  0  0  3  0  0  0  0  0  0
   17.1970  -24.1970  -11.9210 C   0  0  0  0  0  3  0  0  0  0  0  0
   15.1450  -23.8660  -13.8170 C   0  0  0  0  0  3  0  0  0  0  0  0
   16.2490  -24.6890  -14.1100 C   0  0  0  0  0  3  0  0  0  0  0  0
   17.2800  -24.8600  -13.1640 C   0  0  0  0  0  0  0  0  0  0  0  0
   11.9570  -23.7090  -13.2940 C   0  0  0  0  0  1  0  0  0  0  0  0
   12.5870  -22.5680  -12.5200 C   0  0  0  0  0  0  0  0  0  0  0  0
   11.7480  -21.6150  -11.9790 N   0  0  0  0  0  0  0  0  0  0  0  0
   12.3540  -20.6640  -11.0530 C   0  0  0  0  0  2  0  0  0  0  0  0
   14.1320  -20.9240  -11.3010 S   0  0  0  0  0  0  0  0  0  0  0  0
   13.8810  -22.4040  -12.2130 C   0  0  0  0  0  0  0  0  0  0  0  0
   10.7360  -21.6710  -12.0320 H   0  0  0  0  0  0  0  0  0  0  0  0
   23.1320  -22.0110  -10.7370 O   0  0  0  0  0  0  0  0  0  0  0  0
   23.3550  -22.9340  -10.7880 H   0  0  0  0  0  0  0  0  0  0  0  0
   24.3610  -22.9290  -16.7080 C   0  0  1  0  0  0  0  0  0  0  0  0
   25.6250  -22.2740  -17.3210 C   0  0  0  0  0  1  0  0  0  0  0  0
   23.8660  -24.0220  -17.6940 C   0  0  0  0  0  1  0  0  0  0  0  0
   23.2770  -21.8370  -16.6420 C   0  0  0  0  0  1  0  0  0  0  0  0
   24.0160  -28.3310  -16.5440 C   0  0  0  0  0  0  0  0  0  0  0  0
   23.3790  -29.5220  -16.6240 N   0  0  0  0  0  0  0  0  0  0  0  0
   25.3220  -28.3930  -16.1440 N   0  0  0  0  0  0  0  0  0  0  0  0
   23.4560  -27.2630  -16.8070 O   0  0  0  0  0  0  0  0  0  0  0  0
   23.7590  -30.4300  -16.4080 H   0  0  0  0  0  0  0  0  0  0  0  0
   21.8740  -29.3550  -16.8340 N   0  0  0  0  0  4  0  0  0  0  0  0
   21.3950  -29.3510  -15.9410 H   0  0  0  0  0  0  0  0  0  0  0  0
   21.7140  -28.4560  -17.2650 H   0  0  0  0  0  0  0  0  0  0  0  0
   20.4600  -31.2090  -16.8410 C   0  0  0  0  0  0  0  0  0  0  0  0
   19.9140  -30.7820  -15.8160 O   0  0  0  0  0  0  0  0  0  0  0  0
   21.2120  -30.4370  -17.6530 N   0  0  0  0  0  0  0  0  0  0  0  0
   21.7110  -30.7870  -18.4570 H   0  0  0  0  0  0  0  0  0  0  0  0
   20.4520  -32.7200  -17.1440 C   0  0  0  0  0  2  0  0  0  0  0  0
   20.9680  -33.5520  -15.9350 C   0  0  0  0  0  3  0  0  0  0  0  0
   22.3110  -33.0920  -15.5620 N   0  0  0  0  0  0  0  0  0  0  0  0
   20.9820  -35.0570  -16.1590 C   0  0  0  0  0  0  0  0  0  0  0  0
   20.7630  -35.6960  -17.3130 N   0  0  0  0  0  0  0  0  0  0  0  0
   20.9710  -37.0360  -17.0450 N   0  0  0  0  0  0  0  0  0  0  0  0
   21.3110  -37.1010  -15.7530 C   0  0  0  0  0  0  0  0  0  0  0  0
   21.6850  -38.3760  -15.0610 C   0  0  0  0  0  1  0  0  0  0  0  0
   21.3060  -35.8910  -15.1510 N   0  0  0  0  0  0  0  0  0  0  0  0
   21.5620  -35.5320  -13.8130 C   0  0  0  0  0  0  0  0  0  0  0  0
   21.0290  -36.4120  -12.4170 S   0  0  0  0  0  0  0  0  0  0  0  0
   21.6680  -35.1930  -11.3490 C   0  0  0  0  0  0  0  0  0  0  0  0
   21.5230  -35.3620   -9.8710 C   0  0  0  0  0  1  0  0  0  0  0  0
   22.2450  -34.1500  -12.0410 C   0  0  0  0  0  0  0  0  0  0  0  0
   22.8120  -32.9350  -11.3490 C   0  0  0  0  0  1  0  0  0  0  0  0
   22.2190  -34.3720  -13.4640 C   0  0  0  0  0  0  0  0  0  0  0  0
   22.8520  -33.4440  -14.4540 C   0  0  0  0  0  0  0  0  0  0  0  0
   24.1940  -32.9060  -14.1500 C   0  0  0  0  0  0  0  0  0  0  0  0
   25.2400  -33.7740  -13.7650 C   0  0  0  0  0  3  0  0  0  0  0  0
   26.5120  -33.2540  -13.4540 C   0  0  0  0  0  3  0  0  0  0  0  0
   26.7390  -31.8680  -13.5150 C   0  0  0  0  0  0  0  0  0  0  0  0
   28.2890  -31.2140  -13.1470 Cl  0  0  0  0  0  0  0  0  0  0  0  0
   25.6870  -31.0050  -13.8550 C   0  0  0  0  0  3  0  0  0  0  0  0
   24.4210  -31.5180  -14.1860 C   0  0  0  0  0  3  0  0  0  0  0  0
   28.0960  -30.6830  -16.4880 C   0  0  0  0  0  1  0  0  0  0  0  0
   27.3440  -29.4510  -16.1690 N   0  0  0  0  0  2  0  0  0  0  0  0
   26.1340  -29.5020  -16.4610 N   0  0  0  0  0  2  0  0  0  0  0  0
  1 44  1  0
  1  7  1  0
  2  1  1  0
  3  1  1  0
  4 10  1  0
  4  5  1  0
  5  6  2  0
  7  5  1  0
  7  9  1  0
  8  4  1  0
 10 16  1  0
 11 19  1  0
 11 12  1  0
 12 13  1  0
 13 36  1  0
 14 13  1  0
 15 14  1  0
 15 11  1  0
 16 15  1  0
 17 16  2  0
 18 21  1  0
 19 18  1  0
 20 19  2  0
 22 28  1  0
 22 18  1  0
 23 34  1  0
 23 24  1  0
 25 24  2  0
 26 23  2  0
 27 26  1  0
 27 28  2  0
 28 25  1  0
 29 30  1  0
 30 34  2  0
 30 31  1  0
 31 32  1  0
 33 32  1  0
 34 33  1  0
 35 31  1  0
 37 36  1  0
 38 41  1  1
 38 10  1  0
 39 38  1  0
 40 38  1  0
 42 44  1  0
 43 42  1  0
 43 46  1  0
 45 42  2  0
 47 43  1  0
 47 48  1  0
 49 47  1  0
 50 51  2  0
 52 50  1  0
 52 47  1  0
 53 52  1  0
 54 50  1  0
 55 54  1  0
 55 56  1  0
 56 70  2  0
 57 55  1  0
 57 62  1  0
 58 59  1  0
 58 57  2  0
 59 60  2  0
 60 62  1  0
 60 61  1  0
 62 63  1  0
 63 69  2  0
 63 64  1  0
 64 65  1  0
 65 66  1  0
 67 65  2  0
 67 68  1  0
 69 67  1  0
 70 71  1  0
 70 69  1  0
 71 72  1  0
 72 73  2  0
 74 73  1  0
 74 75  1  0
 76 74  2  0
 77 71  2  0
 77 76  1  0
 78 79  1  0
 80 79  1  0
 80 44  1  0
M  ISO  4   5 101   7 101  50 100  52 100
M  END
>  <TORSDO>  (129) 
F 16

>  <SCORE>  (129) 
-11.255

>  <name>  (129) 
128

>  <ligand_id>  (129) 
128

>  <original_smiles>  (129) 
[H]OC1([H])C([H])([H])N(C(=O)C([H])(N([H])C(=O)N([H])[N+]([H])([H])N(N=NC([H])([H])[H])C(=O)N([H])[N+]([H])([H])N([H])C(=O)C([H])([H])C2([H])N=C(c3c([H])c([H])c(Cl)c([H])c3[H])c3c(sc(C([H])([H])[H])c3C([H])([H])[H])-n3c(C([H])([H])[H])nnc32)C(C([H])([H])[H])(C([H])([H])[H])C([H])([H])[H])C([H])(C(=O)N([H])C([H])([H])c2c([H])c([H])c(C3=C(C([H])([H])[H])N([H])C([H])([H])S3)c([H])c2[H])C1([H])[H]

>  <smiles>  (129) 
[H]OC1([H])C([H])([H])N(C(=O)C([H])(N([H])C(=O)N([H])[N+]([H])([H])N(N=NC([H])([H])[H])C(=O)N([H])[N+]([H])([H])N([H])C(=O)C([H])([H])C2([H])N=C(c3c([H])c([H])c(Cl)c([H])c3[H])c3c(sc(C([H])([H])[H])c3C([H])([H])[H])-n3c(C([H])([H])[H])nnc32)C(C([H])([H])[H])(C([H])([H])[H])C([H])([H])[H])C([H])(C(=O)N([H])C([H])([H])c2c([H])c([H])c(C3=C(C([H])([H])[H])N([H])C([H])([H])S3)c([H])c2[H])C1([H])[H]

$$$$
129:0:0
     RDKit          3D

 76 82  0  0  1  0  0  0  0  0999 V2000
   23.4020  -22.9150  -16.3810 C   0  0  0  0  0  0  0  0  0  0  0  0
   22.6480  -21.6100  -16.4650 C   0  0  0  0  0  1  0  0  0  0  0  0
   24.6440  -22.6580  -15.7670 N   0  0  0  0  0  0  0  0  0  0  0  0
   26.0840  -25.6540  -15.2140 N   0  0  0  0  0  4  0  0  0  0  0  0
   26.5910  -24.5870  -14.6930 C   0  0  0  0  0  0  0  0  0  0  0  0
   27.4120  -24.8000  -13.7880 O   0  0  0  0  0  0  0  0  0  0  0  0
   26.0450  -23.3000  -15.1930 N   0  0  0  0  0  0  0  0  0  0  0  0
   26.2930  -26.5860  -14.8920 H   0  0  0  0  0  0  0  0  0  0  0  0
   26.6410  -22.5440  -14.8780 H   0  0  0  0  0  0  0  0  0  0  0  0
   24.9360  -25.3370  -15.8900 C   0  0  0  0  0  0  0  0  0  0  0  0
   22.0020  -24.1170  -13.1900 C   0  0  0  0  0  3  0  0  0  0  0  0
   21.6660  -22.6780  -12.7610 C   0  0  0  0  0  2  0  0  0  0  0  0
   22.9850  -22.0300  -12.4860 C   0  0  0  0  0  3  0  0  0  0  0  0
   23.9790  -22.8600  -13.2440 C   0  0  0  0  0  2  0  0  0  0  0  0
   23.3530  -24.1400  -13.8040 N   0  0  0  0  0  0  0  0  0  0  0  0
   23.8020  -25.2210  -14.6360 C   0  0  0  0  0  0  0  0  0  0  0  0
   23.2650  -26.2960  -14.4690 O   0  0  0  0  0  0  0  0  0  0  0  0
   20.0410  -25.5480  -13.3910 N   0  0  0  0  0  0  0  0  0  0  0  0
   20.8090  -24.6450  -13.9870 C   0  0  0  0  0  0  0  0  0  0  0  0
   20.4900  -24.1630  -15.0580 O   0  0  0  0  0  0  0  0  0  0  0  0
   20.3170  -25.9130  -12.4890 H   0  0  0  0  0  0  0  0  0  0  0  0
   18.7660  -25.9840  -13.9360 C   0  0  0  0  0  2  0  0  0  0  0  0
   15.3870  -23.4510  -12.8880 C   0  0  0  0  0  0  0  0  0  0  0  0
   16.4280  -23.6590  -11.9590 C   0  0  0  0  0  3  0  0  0  0  0  0
   17.5300  -24.4620  -12.2970 C   0  0  0  0  0  3  0  0  0  0  0  0
   15.4700  -24.0390  -14.1670 C   0  0  0  0  0  3  0  0  0  0  0  0
   16.5750  -24.8430  -14.5050 C   0  0  0  0  0  3  0  0  0  0  0  0
   17.6050  -25.0680  -13.5700 C   0  0  0  0  0  0  0  0  0  0  0  0
   12.2910  -23.9260  -13.6640 C   0  0  0  0  0  1  0  0  0  0  0  0
   12.9070  -22.8390  -12.8050 C   0  0  0  0  0  0  0  0  0  0  0  0
   12.0570  -21.9360  -12.2000 N   0  0  0  0  0  0  0  0  0  0  0  0
   12.6500  -21.0510  -11.2030 C   0  0  0  0  0  2  0  0  0  0  0  0
   14.4310  -21.2760  -11.4560 S   0  0  0  0  0  0  0  0  0  0  0  0
   14.1980  -22.6860  -12.4780 C   0  0  0  0  0  0  0  0  0  0  0  0
   11.0460  -21.9960  -12.2630 H   0  0  0  0  0  0  0  0  0  0  0  0
   23.4070  -22.0810  -11.1500 O   0  0  0  0  0  0  0  0  0  0  0  0
   23.4090  -22.9900  -10.8670 H   0  0  0  0  0  0  0  0  0  0  0  0
   25.4000  -24.5520  -17.4020 C   0  0  1  0  0  0  0  0  0  0  0  0
   26.9460  -24.2780  -17.5080 C   0  0  0  0  0  1  0  0  0  0  0  0
   25.0780  -25.5750  -18.4730 C   0  0  0  0  0  1  0  0  0  0  0  0
   25.0920  -23.1430  -18.1650 C   0  0  0  0  0  1  0  0  0  0  0  0
   22.5030  -24.1510  -17.2640 C   0  0  0  0  0  2  0  0  0  0  0  0
   21.6390  -25.8460  -18.9300 C   0  0  0  0  0  1  0  0  0  0  0  0
   22.3830  -25.9170  -17.5370 C   0  0  0  0  0  3  0  0  0  0  0  0
   21.5610  -27.3830  -17.1720 C   0  0  0  0  0  0  0  0  0  0  0  0
   22.1170  -28.6970  -17.1970 N   0  0  0  0  0  0  0  0  0  0  0  0
   20.3350  -27.3350  -17.0040 O   0  0  0  0  0  0  0  0  0  0  0  0
   23.1260  -28.7450  -17.2420 H   0  0  0  0  0  0  0  0  0  0  0  0
   20.9430  -31.2170  -17.0500 C   0  0  0  0  0  0  0  0  0  0  0  0
   20.2960  -30.9550  -16.0510 O   0  0  0  0  0  0  0  0  0  0  0  0
   21.5550  -30.1140  -17.7180 N   0  0  0  0  0  0  0  0  0  0  0  0
   22.0050  -30.3120  -18.6010 H   0  0  0  0  0  0  0  0  0  0  0  0
   20.9840  -32.8230  -17.3680 C   0  0  0  0  0  2  0  0  0  0  0  0
   21.4050  -33.7510  -16.1070 C   0  0  0  0  0  3  0  0  0  0  0  0
   22.7420  -33.2930  -15.7870 N   0  0  0  0  0  0  0  0  0  0  0  0
   21.4400  -35.3220  -16.0960 C   0  0  0  0  0  0  0  0  0  0  0  0
   21.2280  -36.1690  -17.1170 N   0  0  0  0  0  0  0  0  0  0  0  0
   21.4870  -37.4510  -16.6370 N   0  0  0  0  0  0  0  0  0  0  0  0
   21.8460  -37.3010  -15.3600 C   0  0  0  0  0  0  0  0  0  0  0  0
   22.2840  -38.4440  -14.4800 C   0  0  0  0  0  1  0  0  0  0  0  0
   21.7980  -36.0050  -14.9630 N   0  0  0  0  0  0  0  0  0  0  0  0
   22.0610  -35.4610  -13.6880 C   0  0  0  0  0  0  0  0  0  0  0  0
   21.5970  -36.1530  -12.1610 S   0  0  0  0  0  0  0  0  0  0  0  0
   22.2060  -34.7670  -11.2960 C   0  0  0  0  0  0  0  0  0  0  0  0
   22.0930  -34.7140   -9.8050 C   0  0  0  0  0  1  0  0  0  0  0  0
   22.7300  -33.8190  -12.1480 C   0  0  0  0  0  0  0  0  0  0  0  0
   23.2590  -32.4940  -11.6610 C   0  0  0  0  0  1  0  0  0  0  0  0
   22.6890  -34.2490  -13.5220 C   0  0  0  0  0  0  0  0  0  0  0  0
   23.2850  -33.4640  -14.6470 C   0  0  0  0  0  0  0  0  0  0  0  0
   24.6050  -32.8380  -14.4710 C   0  0  0  0  0  0  0  0  0  0  0  0
   25.6270  -33.5170  -13.7750 C   0  0  0  0  0  3  0  0  0  0  0  0
   26.8760  -32.8980  -13.5920 C   0  0  0  0  0  3  0  0  0  0  0  0
   27.1050  -31.6060  -14.1030 C   0  0  0  0  0  0  0  0  0  0  0  0
   28.6310  -30.8450  -13.8690 Cl  0  0  0  0  0  0  0  0  0  0  0  0
   26.0890  -30.9310  -14.8050 C   0  0  0  0  0  3  0  0  0  0  0  0
   24.8390  -31.5470  -14.9930 C   0  0  0  0  0  3  0  0  0  0  0  0
  1  3  2  0
  2  1  1  0
  3  7  1  0
  4  8  1  0
  4  5  1  0
  5  6  2  0
  7  9  1  0
  7  5  1  0
 10  4  2  3
 10 16  1  0
 11 19  1  0
 11 12  1  0
 12 13  1  0
 13 36  1  0
 14 13  1  0
 15 14  1  0
 15 11  1  0
 16 17  2  0
 16 15  1  0
 18 21  1  0
 19 18  1  0
 20 19  2  0
 22 28  1  0
 22 18  1  0
 23 34  1  0
 23 24  1  0
 25 24  2  0
 26 23  2  0
 27 26  1  0
 27 28  2  0
 28 25  1  0
 29 30  1  0
 30 34  2  0
 30 31  1  0
 31 32  1  0
 33 32  1  0
 34 33  1  0
 35 31  1  0
 36 37  1  0
 38 10  1  0
 38 39  1  1
 40 38  1  0
 41 38  1  0
 42  1  1  0
 44 43  1  0
 44 42  1  0
 44 45  1  0
 45 47  2  0
 46 45  1  0
 48 46  1  0
 49 50  2  0
 51 46  1  0
 51 49  1  0
 52 51  1  0
 53 49  1  0
 54 53  1  0
 54 56  1  0
 54 55  1  0
 55 69  2  0
 56 61  1  0
 57 58  1  0
 57 56  2  0
 58 59  2  0
 59 61  1  0
 59 60  1  0
 61 62  1  0
 62 68  2  0
 62 63  1  0
 63 64  1  0
 64 65  1  0
 66 67  1  0
 66 64  2  0
 68 66  1  0
 69 70  1  0
 69 68  1  0
 70 71  1  0
 71 72  2  0
 73 74  1  0
 73 72  1  0
 75 73  2  0
 76 75  1  0
 76 70  2  0
M  ISO  4   5 101   7 101  49 100  51 100
M  END
>  <TORSDO>  (130) 
F 16

>  <SCORE>  (130) 
-15.290

>  <name>  (130) 
129

>  <ligand_id>  (130) 
129

>  <original_smiles>  (130) 
[H]OC1([H])C([H])([H])N(C(=O)C([H])(N([H])C(=O)N([H])N=C(C([H])([H])[H])C([H])([H])C([H])(C(=O)N([H])N([H])C(=O)C([H])([H])C2([H])N=C(c3c([H])c([H])c(Cl)c([H])c3[H])c3c(sc(C([H])([H])[H])c3C([H])([H])[H])-n3c(C([H])([H])[H])nnc32)C([H])([H])[H])C(C([H])([H])[H])(C([H])([H])[H])C([H])([H])[H])C([H])(C(=O)N([H])C([H])([H])c2c([H])c([H])c(C3=C(C([H])([H])[H])N([H])C([H])([H])S3)c([H])c2[H])C1([H])[H]

>  <smiles>  (130) 
[H]OC1([H])C([H])([H])N(C(=O)C([H])(N([H])C(=O)N([H])N=C(C([H])([H])[H])C([H])([H])C([H])(C(=O)N([H])N([H])C(=O)C([H])([H])C2([H])N=C(c3c([H])c([H])c(Cl)c([H])c3[H])c3c(sc(C([H])([H])[H])c3C([H])([H])[H])-n3c(C([H])([H])[H])nnc32)C([H])([H])[H])C(C([H])([H])[H])(C([H])([H])[H])C([H])([H])[H])C([H])(C(=O)N([H])C([H])([H])c2c([H])c([H])c(C3=C(C([H])([H])[H])N([H])C([H])([H])S3)c([H])c2[H])C1([H])[H]

$$$$
130:0:0
     RDKit          3D

 79 87  0  0  1  0  0  0  0  0999 V2000
   24.9910  -28.3810  -18.9960 C   0  0  0  0  0  2  0  0  0  0  0  0
   24.2890  -27.9690  -17.7130 C   0  0  0  0  0  3  0  0  0  0  0  0
   23.1270  -28.9240  -17.3690 C   0  0  0  0  0  3  0  0  0  0  0  0
   23.8010  -27.5810  -14.6310 C   0  0  0  0  0  3  0  0  0  0  0  0
   22.3290  -29.5380  -18.5850 C   0  0  0  0  0  3  0  0  0  0  0  0
   22.3740  -27.9310  -15.2190 C   0  0  0  0  0  3  0  0  0  0  0  0
   24.8300  -26.9370  -15.6300 C   0  0  0  0  0  3  0  0  0  0  0  0
   23.9460  -28.3480  -19.9480 O   0  0  0  0  0  0  0  0  0  0  0  0
   25.2230  -27.8600  -16.6130 O   0  0  0  0  0  0  0  0  0  0  0  0
   22.2640  -28.0730  -16.6090 O   0  0  0  0  0  0  0  0  0  0  0  0
   23.1450  -29.5980  -19.7610 O   0  0  0  0  0  0  0  0  0  0  0  0
   21.8370  -29.0470  -14.5490 O   0  0  0  0  0  0  0  0  0  0  0  0
   20.9020  -29.0600  -14.7220 H   0  0  0  0  0  0  0  0  0  0  0  0
   23.6310  -26.7790  -13.4770 O   0  0  0  0  0  0  0  0  0  0  0  0
   23.0560  -27.2640  -12.8950 H   0  0  0  0  0  0  0  0  0  0  0  0
   25.9560  -26.3780  -14.9070 O   0  0  0  0  0  0  0  0  0  0  0  0
   25.3110  -24.3330  -15.6950 N   0  0  0  0  0  0  0  0  0  0  0  0
   26.0360  -24.9700  -14.7270 C   0  0  0  0  0  0  0  0  0  0  0  0
   26.6180  -24.3740  -13.8090 O   0  0  0  0  0  0  0  0  0  0  0  0
   25.1220  -24.9040  -16.5030 H   0  0  0  0  0  0  0  0  0  0  0  0
   24.3110  -23.2980  -15.4800 C   0  0  0  0  0  3  0  0  0  0  0  0
   21.3980  -23.7710  -12.8590 C   0  0  0  0  0  3  0  0  0  0  0  0
   21.0040  -22.6100  -11.9370 C   0  0  0  0  0  2  0  0  0  0  0  0
   22.2850  -21.8180  -11.7660 C   0  0  0  0  0  3  0  0  0  0  0  0
   23.0650  -22.0280  -13.0620 C   0  0  0  0  0  2  0  0  0  0  0  0
   22.5400  -23.2600  -13.6480 N   0  0  0  0  0  0  0  0  0  0  0  0
   23.0850  -23.8930  -14.7070 C   0  0  0  0  0  0  0  0  0  0  0  0
   22.6130  -24.9590  -15.0880 O   0  0  0  0  0  0  0  0  0  0  0  0
   19.4010  -25.1670  -13.0670 N   0  0  0  0  0  0  0  0  0  0  0  0
   20.1640  -24.2400  -13.6550 C   0  0  0  0  0  0  0  0  0  0  0  0
   19.8880  -23.7350  -14.7460 O   0  0  0  0  0  0  0  0  0  0  0  0
   19.7040  -25.5360  -12.1760 H   0  0  0  0  0  0  0  0  0  0  0  0
   18.0950  -25.6030  -13.5470 C   0  0  0  0  0  2  0  0  0  0  0  0
   14.8750  -22.9030  -12.4100 C   0  0  0  0  0  0  0  0  0  0  0  0
   15.9280  -23.1690  -11.5110 C   0  0  0  0  0  3  0  0  0  0  0  0
   16.9700  -24.0380  -11.8770 C   0  0  0  0  0  3  0  0  0  0  0  0
   14.8780  -23.5140  -13.6830 C   0  0  0  0  0  3  0  0  0  0  0  0
   15.9230  -24.3840  -14.0480 C   0  0  0  0  0  3  0  0  0  0  0  0
   16.9750  -24.6520  -13.1480 C   0  0  0  0  0  0  0  0  0  0  0  0
   11.7200  -23.2220  -13.0090 C   0  0  0  0  0  1  0  0  0  0  0  0
   12.4410  -22.1400  -12.2290 C   0  0  0  0  0  0  0  0  0  0  0  0
   11.6790  -21.1620  -11.6240 N   0  0  0  0  0  0  0  0  0  0  0  0
   12.3730  -20.2750  -10.6980 C   0  0  0  0  0  2  0  0  0  0  0  0
   14.1230  -20.6180  -11.0300 S   0  0  0  0  0  0  0  0  0  0  0  0
   13.7540  -22.0520  -11.9750 C   0  0  0  0  0  0  0  0  0  0  0  0
   10.6630  -21.1630  -11.6340 H   0  0  0  0  0  0  0  0  0  0  0  0
   23.0440  -22.3380  -10.6870 O   0  0  0  0  0  0  0  0  0  0  0  0
   23.2420  -23.2510  -10.8700 H   0  0  0  0  0  0  0  0  0  0  0  0
   23.9470  -22.7730  -16.9090 C   0  0  1  0  0  0  0  0  0  0  0  0
   25.1930  -22.0880  -17.5190 C   0  0  0  0  0  1  0  0  0  0  0  0
   23.4970  -23.8950  -17.8830 C   0  0  0  0  0  1  0  0  0  0  0  0
   22.8270  -21.7160  -16.8470 C   0  0  0  0  0  1  0  0  0  0  0  0
   21.9140  -30.8920  -18.3340 O   0  0  0  0  0  0  0  0  0  0  0  0
   20.9070  -31.3330  -17.5300 C   0  0  0  0  0  0  0  0  0  0  0  0
   20.2280  -30.6660  -16.7480 O   0  0  0  0  0  0  0  0  0  0  0  0
   20.8470  -32.8700  -17.5470 C   0  0  0  0  0  2  0  0  0  0  0  0
   21.4400  -33.4960  -16.2570 C   0  0  0  0  0  3  0  0  0  0  0  0
   22.7670  -32.9320  -15.9900 N   0  0  0  0  0  0  0  0  0  0  0  0
   21.5300  -35.0150  -16.2700 C   0  0  0  0  0  0  0  0  0  0  0  0
   21.3400  -35.8250  -17.3180 N   0  0  0  0  0  0  0  0  0  0  0  0
   21.6290  -37.1000  -16.8640 N   0  0  0  0  0  0  0  0  0  0  0  0
   21.9830  -36.9580  -15.5830 C   0  0  0  0  0  0  0  0  0  0  0  0
   22.4410  -38.0950  -14.7210 C   0  0  0  0  0  1  0  0  0  0  0  0
   21.9140  -35.6770  -15.1600 N   0  0  0  0  0  0  0  0  0  0  0  0
   22.1630  -35.1130  -13.8920 C   0  0  0  0  0  0  0  0  0  0  0  0
   21.6940  -35.8030  -12.3730 S   0  0  0  0  0  0  0  0  0  0  0  0
   22.2720  -34.4050  -11.5090 C   0  0  0  0  0  0  0  0  0  0  0  0
   22.1530  -34.3580  -10.0210 C   0  0  0  0  0  1  0  0  0  0  0  0
   22.7820  -33.4460  -12.3580 C   0  0  0  0  0  0  0  0  0  0  0  0
   23.2810  -32.1100  -11.8670 C   0  0  0  0  0  1  0  0  0  0  0  0
   22.7590  -33.8810  -13.7290 C   0  0  0  0  0  0  0  0  0  0  0  0
   23.3390  -33.0850  -14.8530 C   0  0  0  0  0  0  0  0  0  0  0  0
   24.6650  -32.4590  -14.6550 C   0  0  0  0  0  0  0  0  0  0  0  0
   25.7230  -33.1540  -14.0360 C   0  0  0  0  0  3  0  0  0  0  0  0
   26.9640  -32.5130  -13.8330 C   0  0  0  0  0  3  0  0  0  0  0  0
   27.1640  -31.1950  -14.2830 C   0  0  0  0  0  0  0  0  0  0  0  0
   28.6650  -30.3880  -14.0300 Cl  0  0  0  0  0  0  0  0  0  0  0  0
   26.1300  -30.5200  -14.9340 C   0  0  0  0  0  3  0  0  0  0  0  0
   24.8740  -31.1380  -15.0670 C   0  0  0  0  0  3  0  0  0  0  0  0
  2  1  1  0
  2  3  1  0
  2  9  1  0
  3 10  1  0
  4 14  1  0
  5 53  1  0
  5  3  1  0
  6  4  1  0
  6 12  1  0
  7 16  1  0
  7  4  1  0
  8 11  1  0
  8  1  1  0
  9  7  1  0
 10  6  1  0
 11  5  1  0
 13 12  1  0
 14 15  1  0
 16 18  1  0
 17 21  1  0
 17 18  1  0
 18 19  2  0
 20 17  1  0
 21 27  1  0
 22 30  1  0
 22 23  1  0
 23 24  1  0
 24 47  1  0
 25 24  1  0
 26 25  1  0
 26 22  1  0
 27 26  1  0
 28 27  2  0
 29 32  1  0
 30 29  1  0
 31 30  2  0
 33 39  1  0
 33 29  1  0
 34 45  1  0
 34 35  1  0
 36 35  2  0
 37 34  2  0
 38 37  1  0
 38 39  2  0
 39 36  1  0
 40 41  1  0
 41 45  2  0
 41 42  1  0
 42 43  1  0
 44 43  1  0
 45 44  1  0
 46 42  1  0
 48 47  1  0
 49 52  1  1
 49 21  1  0
 50 49  1  0
 51 49  1  0
 53 54  1  0
 54 55  2  0
 56 54  1  0
 57 56  1  0
 57 58  1  0
 58 72  2  0
 59 57  1  0
 59 64  1  0
 60 61  1  0
 60 59  2  0
 61 62  2  0
 62 64  1  0
 62 63  1  0
 64 65  1  0
 65 71  2  0
 65 66  1  0
 66 67  1  0
 67 68  1  0
 69 70  1  0
 69 67  2  0
 71 69  1  0
 72 73  1  0
 72 71  1  0
 73 74  1  0
 74 75  2  0
 76 77  1  0
 76 75  1  0
 78 76  2  0
 79 78  1  0
 79 73  2  0
M  ISO  4  16 101  18 101  53 100  54 100
M  END
>  <TORSDO>  (131) 
F 17

>  <SCORE>  (131) 
-10.365

>  <name>  (131) 
130

>  <ligand_id>  (131) 
130

>  <original_smiles>  (131) 
[H]OC1([H])OC2([H])C([H])(OC(=O)C([H])([H])C3([H])N=C(c4c([H])c([H])c(Cl)c([H])c4[H])c4c(sc(C([H])([H])[H])c4C([H])([H])[H])-n4c(C([H])([H])[H])nnc43)OOC([H])([H])C2([H])OC([H])(OC(=O)N([H])C([H])(C(=O)N2C([H])([H])C([H])(O[H])C([H])([H])C2([H])C(=O)N([H])C([H])([H])c2c([H])c([H])c(C3=C(C([H])([H])[H])N([H])C([H])([H])S3)c([H])c2[H])C(C([H])([H])[H])(C([H])([H])[H])C([H])([H])[H])C1([H])O[H]

>  <smiles>  (131) 
[H]OC1([H])OC2([H])C([H])(OC(=O)C([H])([H])C3([H])N=C(c4c([H])c([H])c(Cl)c([H])c4[H])c4c(sc(C([H])([H])[H])c4C([H])([H])[H])-n4c(C([H])([H])[H])nnc43)OOC([H])([H])C2([H])OC([H])(OC(=O)N([H])C([H])(C(=O)N2C([H])([H])C([H])(O[H])C([H])([H])C2([H])C(=O)N([H])C([H])([H])c2c([H])c([H])c(C3=C(C([H])([H])[H])N([H])C([H])([H])S3)c([H])c2[H])C(C([H])([H])[H])(C([H])([H])[H])C([H])([H])[H])C1([H])O[H]

$$$$
131:0:0
     RDKit          3D

 72 79  0  0  1  0  0  0  0  0999 V2000
   25.8910  -24.6850  -15.4520 N   0  0  0  0  0  0  0  0  0  0  0  0
   26.8960  -25.1240  -14.7120 C   0  0  0  0  0  0  0  0  0  0  0  0
   27.2070  -24.6580  -13.6130 O   0  0  0  0  0  0  0  0  0  0  0  0
   27.3640  -26.6550  -16.7190 C   0  0  0  0  0  2  0  0  0  0  0  0
   27.4410  -27.5570  -14.8650 C   0  0  0  0  0  2  0  0  0  0  0  0
   26.6360  -27.8780  -16.1550 C   0  0  0  0  0  3  0  0  0  0  0  0
   27.4780  -26.1770  -15.3260 N   0  0  0  0  0  0  0  0  0  0  0  0
   25.7250  -25.2150  -16.2920 H   0  0  0  0  0  0  0  0  0  0  0  0
   24.9350  -23.6210  -15.2360 C   0  0  0  0  0  3  0  0  0  0  0  0
   21.8640  -23.9790  -12.8100 C   0  0  0  0  0  3  0  0  0  0  0  0
   21.4330  -22.7720  -11.9640 C   0  0  0  0  0  2  0  0  0  0  0  0
   22.7100  -21.9860  -11.7500 C   0  0  0  0  0  3  0  0  0  0  0  0
   23.5620  -22.2670  -12.9870 C   0  0  0  0  0  2  0  0  0  0  0  0
   23.0570  -23.5210  -13.5530 N   0  0  0  0  0  0  0  0  0  0  0  0
   23.6820  -24.2230  -14.5290 C   0  0  0  0  0  0  0  0  0  0  0  0
   23.3000  -25.3550  -14.8420 O   0  0  0  0  0  0  0  0  0  0  0  0
   19.8890  -25.3810  -13.1130 N   0  0  0  0  0  0  0  0  0  0  0  0
   20.6790  -24.4570  -13.6690 C   0  0  0  0  0  0  0  0  0  0  0  0
   20.4610  -23.9570  -14.7750 O   0  0  0  0  0  0  0  0  0  0  0  0
   20.1540  -25.7560  -12.2130 H   0  0  0  0  0  0  0  0  0  0  0  0
   18.6090  -25.8230  -13.6540 C   0  0  0  0  0  2  0  0  0  0  0  0
   15.3110  -23.1770  -12.6200 C   0  0  0  0  0  0  0  0  0  0  0  0
   16.3530  -23.4060  -11.6960 C   0  0  0  0  0  3  0  0  0  0  0  0
   17.4190  -24.2590  -12.0280 C   0  0  0  0  0  3  0  0  0  0  0  0
   15.3540  -23.8050  -13.8830 C   0  0  0  0  0  3  0  0  0  0  0  0
   16.4240  -24.6580  -14.2150 C   0  0  0  0  0  3  0  0  0  0  0  0
   17.4620  -24.8910  -13.2900 C   0  0  0  0  0  0  0  0  0  0  0  0
   12.1720  -23.6150  -13.2140 C   0  0  0  0  0  1  0  0  0  0  0  0
   12.8550  -22.4840  -12.4740 C   0  0  0  0  0  0  0  0  0  0  0  0
   12.0610  -21.5100  -11.9070 N   0  0  0  0  0  0  0  0  0  0  0  0
   12.7230  -20.5660  -11.0130 C   0  0  0  0  0  2  0  0  0  0  0  0
   14.4840  -20.8670  -11.3250 S   0  0  0  0  0  0  0  0  0  0  0  0
   14.1650  -22.3440  -12.2200 C   0  0  0  0  0  0  0  0  0  0  0  0
   11.0460  -21.5410  -11.9220 H   0  0  0  0  0  0  0  0  0  0  0  0
   23.3970  -22.4630  -10.6040 O   0  0  0  0  0  0  0  0  0  0  0  0
   23.6110  -23.3810  -10.7410 H   0  0  0  0  0  0  0  0  0  0  0  0
   24.6390  -23.0330  -16.6640 C   0  0  1  0  0  0  0  0  0  0  0  0
   25.9430  -22.4030  -17.2200 C   0  0  0  0  0  1  0  0  0  0  0  0
   24.1500  -24.0960  -17.6840 C   0  0  0  0  0  1  0  0  0  0  0  0
   23.5850  -21.9110  -16.6000 C   0  0  0  0  0  1  0  0  0  0  0  0
   25.0910  -27.8730  -16.0540 C   0  0  0  0  0  2  0  0  0  0  0  0
   24.2640  -28.3750  -17.2310 C   0  0  0  0  0  3  0  0  0  0  0  0
   23.0620  -28.9700  -17.0550 C   0  0  0  0  0  3  0  0  0  0  0  0
   22.0720  -29.3960  -18.1330 C   0  0  0  0  0  2  0  0  0  0  0  0
   20.9270  -31.5030  -17.3120 C   0  0  0  0  0  0  0  0  0  0  0  0
   20.2480  -30.9610  -16.4360 O   0  0  0  0  0  0  0  0  0  0  0  0
   21.7740  -30.8310  -18.1150 N   0  0  0  0  0  0  0  0  0  0  0  0
   22.3270  -31.3970  -18.7460 H   0  0  0  0  0  0  0  0  0  0  0  0
   20.9450  -33.0340  -17.4360 C   0  0  0  0  0  2  0  0  0  0  0  0
   21.4450  -33.7190  -16.1340 C   0  0  0  0  0  3  0  0  0  0  0  0
   22.7870  -33.2380  -15.8020 N   0  0  0  0  0  0  0  0  0  0  0  0
   21.4500  -35.2370  -16.1770 C   0  0  0  0  0  0  0  0  0  0  0  0
   21.2530  -36.0100  -17.2530 N   0  0  0  0  0  0  0  0  0  0  0  0
   21.4490  -37.3090  -16.8230 N   0  0  0  0  0  0  0  0  0  0  0  0
   21.7610  -37.2190  -15.5270 C   0  0  0  0  0  0  0  0  0  0  0  0
   22.1200  -38.4030  -14.6840 C   0  0  0  0  0  1  0  0  0  0  0  0
   21.7500  -35.9460  -15.0710 N   0  0  0  0  0  0  0  0  0  0  0  0
   21.9830  -35.4280  -13.7810 C   0  0  0  0  0  0  0  0  0  0  0  0
   21.4220  -36.1330  -12.3000 S   0  0  0  0  0  0  0  0  0  0  0  0
   22.0470  -34.7940  -11.3750 C   0  0  0  0  0  0  0  0  0  0  0  0
   21.8750  -34.7860   -9.8900 C   0  0  0  0  0  1  0  0  0  0  0  0
   22.6420  -33.8430  -12.1760 C   0  0  0  0  0  0  0  0  0  0  0  0
   23.2030  -32.5540  -11.6270 C   0  0  0  0  0  1  0  0  0  0  0  0
   22.6410  -34.2360  -13.5630 C   0  0  0  0  0  0  0  0  0  0  0  0
   23.2990  -33.4410  -14.6460 C   0  0  0  0  0  0  0  0  0  0  0  0
   24.6380  -32.8790  -14.3880 C   0  0  0  0  0  0  0  0  0  0  0  0
   25.6350  -33.6710  -13.7740 C   0  0  0  0  0  3  0  0  0  0  0  0
   26.9050  -33.1270  -13.5010 C   0  0  0  0  0  3  0  0  0  0  0  0
   27.1780  -31.7890  -13.8340 C   0  0  0  0  0  0  0  0  0  0  0  0
   28.7200  -31.0940  -13.5040 Cl  0  0  0  0  0  0  0  0  0  0  0  0
   26.1790  -31.0100  -14.4320 C   0  0  0  0  0  3  0  0  0  0  0  0
   24.9170  -31.5420  -14.7260 C   0  0  0  0  0  3  0  0  0  0  0  0
  1  9  1  0
  1  2  1  0
  2  3  2  0
  4  6  1  0
  4  7  1  0
  6 41  1  0
  6  5  1  0
  7  5  1  0
  7  2  1  0
  8  1  1  0
  9 15  1  0
 10 18  1  0
 10 11  1  0
 11 12  1  0
 12 35  1  0
 13 12  1  0
 14 13  1  0
 14 10  1  0
 15 14  1  0
 16 15  2  0
 17 20  1  0
 18 17  1  0
 19 18  2  0
 21 27  1  0
 21 17  1  0
 22 33  1  0
 22 23  1  0
 24 23  2  0
 25 22  2  0
 26 25  1  0
 26 27  2  0
 27 24  1  0
 28 29  1  0
 29 33  2  0
 29 30  1  0
 30 31  1  0
 32 31  1  0
 33 32  1  0
 34 30  1  0
 36 35  1  0
 37 40  1  1
 37  9  1  0
 38 37  1  0
 39 37  1  0
 42 43  2  0
 42 41  1  0
 44 47  1  0
 44 43  1  0
 45 46  2  0
 47 45  1  0
 48 47  1  0
 49 45  1  0
 50 49  1  0
 50 51  1  0
 51 65  2  0
 52 50  1  0
 52 57  1  0
 53 54  1  0
 53 52  2  0
 54 55  2  0
 55 57  1  0
 55 56  1  0
 57 58  1  0
 58 64  2  0
 58 59  1  0
 59 60  1  0
 60 61  1  0
 62 63  1  0
 62 60  2  0
 64 62  1  0
 65 66  1  0
 65 64  1  0
 66 67  1  0
 67 68  2  0
 69 70  1  0
 69 68  1  0
 71 69  2  0
 72 71  1  0
 72 66  2  0
M  ISO  4   2 101   7 101  45 100  47 100
M  END
>  <TORSDO>  (132) 
F 15

>  <SCORE>  (132) 
-14.607

>  <name>  (132) 
131

>  <ligand_id>  (132) 
131

>  <original_smiles>  (132) 
[H]OC1([H])C([H])([H])N(C(=O)C([H])(N([H])C(=O)N2C([H])([H])C([H])(C([H])([H])C([H])=C([H])C([H])([H])N([H])C(=O)C([H])([H])C3([H])N=C(c4c([H])c([H])c(Cl)c([H])c4[H])c4c(sc(C([H])([H])[H])c4C([H])([H])[H])-n4c(C([H])([H])[H])nnc43)C2([H])[H])C(C([H])([H])[H])(C([H])([H])[H])C([H])([H])[H])C([H])(C(=O)N([H])C([H])([H])c2c([H])c([H])c(C3=C(C([H])([H])[H])N([H])C([H])([H])S3)c([H])c2[H])C1([H])[H]

>  <smiles>  (132) 
[H]OC1([H])C([H])([H])N(C(=O)C([H])(N([H])C(=O)N2C([H])([H])C([H])(C([H])([H])C([H])=C([H])C([H])([H])N([H])C(=O)C([H])([H])C3([H])N=C(c4c([H])c([H])c(Cl)c([H])c4[H])c4c(sc(C([H])([H])[H])c4C([H])([H])[H])-n4c(C([H])([H])[H])nnc43)C2([H])[H])C(C([H])([H])[H])(C([H])([H])[H])C([H])([H])[H])C([H])(C(=O)N([H])C([H])([H])c2c([H])c([H])c(C3=C(C([H])([H])[H])N([H])C([H])([H])S3)c([H])c2[H])C1([H])[H]

$$$$
132:0:0
     RDKit          3D

 75 82  0  0  1  0  0  0  0  0999 V2000
   25.8250  -24.7500  -15.5410 N   0  0  0  0  0  0  0  0  0  0  0  0
   26.6140  -25.4330  -14.7270 C   0  0  0  0  0  0  0  0  0  0  0  0
   27.1190  -24.9200  -13.7100 O   0  0  0  0  0  0  0  0  0  0  0  0
   26.6520  -26.8170  -15.0570 N   0  0  0  0  0  0  0  0  0  0  0  0
   25.6240  -25.1780  -16.4300 H   0  0  0  0  0  0  0  0  0  0  0  0
   27.1000  -27.4600  -14.4080 H   0  0  0  0  0  0  0  0  0  0  0  0
   27.1230  -28.8580  -16.6400 O   0  0  0  0  0  0  0  0  0  0  0  0
   26.5190  -26.6350  -17.6700 O   0  0  0  0  0  0  0  0  0  0  0  0
   26.3030  -27.6360  -16.6110 S   0  0  2  0  0  0  0  0  0  0  0  0
   24.0650  -29.4700  -17.0710 C   0  0  0  0  0  3  0  0  0  0  0  0
   21.7910  -28.5920  -17.1120 C   0  0  0  0  0  3  0  0  0  0  0  0
   23.5600  -27.1730  -16.7200 C   0  0  0  0  0  3  0  0  0  0  0  0
   22.6540  -29.6990  -17.2170 C   0  0  0  0  0  0  0  0  0  0  0  0
   24.5340  -28.1650  -16.7510 C   0  0  0  0  0  0  0  0  0  0  0  0
   22.2310  -27.3440  -16.8950 N   0  0  0  0  0  0  0  0  0  0  0  0
   20.9890  -31.5700  -16.9890 C   0  0  0  0  0  0  0  0  0  0  0  0
   20.2020  -30.9960  -16.2310 O   0  0  0  0  0  0  0  0  0  0  0  0
   22.1130  -30.9960  -17.4990 N   0  0  0  0  0  0  0  0  0  0  0  0
   22.7400  -31.6480  -17.9520 H   0  0  0  0  0  0  0  0  0  0  0  0
   20.9020  -33.0910  -17.1760 C   0  0  0  0  0  2  0  0  0  0  0  0
   21.3930  -33.7890  -15.8770 C   0  0  0  0  0  3  0  0  0  0  0  0
   22.7450  -33.3210  -15.5630 N   0  0  0  0  0  0  0  0  0  0  0  0
   21.3920  -35.3040  -15.9070 C   0  0  0  0  0  0  0  0  0  0  0  0
   21.1810  -36.0870  -16.9700 N   0  0  0  0  0  0  0  0  0  0  0  0
   21.3930  -37.3800  -16.5290 N   0  0  0  0  0  0  0  0  0  0  0  0
   21.7280  -37.2730  -15.2380 C   0  0  0  0  0  0  0  0  0  0  0  0
   22.1080  -38.4460  -14.3860 C   0  0  0  0  0  1  0  0  0  0  0  0
   21.7150  -35.9980  -14.7960 N   0  0  0  0  0  0  0  0  0  0  0  0
   21.9660  -35.4650  -13.5130 C   0  0  0  0  0  0  0  0  0  0  0  0
   21.4310  -36.1550  -12.0150 S   0  0  0  0  0  0  0  0  0  0  0  0
   22.0630  -34.8060  -11.1140 C   0  0  0  0  0  0  0  0  0  0  0  0
   21.9140  -34.7790   -9.6270 C   0  0  0  0  0  1  0  0  0  0  0  0
   22.6410  -33.8600  -11.9330 C   0  0  0  0  0  0  0  0  0  0  0  0
   23.2000  -32.5620  -11.4070 C   0  0  0  0  0  1  0  0  0  0  0  0
   22.6220  -34.2710  -13.3140 C   0  0  0  0  0  0  0  0  0  0  0  0
   23.2650  -33.4880  -14.4100 C   0  0  0  0  0  0  0  0  0  0  0  0
   24.5950  -32.8960  -14.1780 C   0  0  0  0  0  0  0  0  0  0  0  0
   25.6360  -33.6790  -13.6350 C   0  0  0  0  0  3  0  0  0  0  0  0
   26.8990  -33.1030  -13.3980 C   0  0  0  0  0  3  0  0  0  0  0  0
   27.1230  -31.7470  -13.7010 C   0  0  0  0  0  0  0  0  0  0  0  0
   28.6670  -31.0390  -13.4130 Cl  0  0  0  0  0  0  0  0  0  0  0  0
   26.0760  -30.9630  -14.2160 C   0  0  0  0  0  3  0  0  0  0  0  0
   24.8160  -31.5360  -14.4580 C   0  0  0  0  0  3  0  0  0  0  0  0
   24.9350  -23.6410  -15.2260 C   0  0  0  0  0  3  0  0  0  0  0  0
   21.8520  -23.9310  -12.7780 C   0  0  0  0  0  3  0  0  0  0  0  0
   21.4070  -22.7150  -11.9530 C   0  0  0  0  0  2  0  0  0  0  0  0
   22.6800  -21.9200  -11.7430 C   0  0  0  0  0  3  0  0  0  0  0  0
   23.5340  -22.2020  -12.9790 C   0  0  0  0  0  2  0  0  0  0  0  0
   23.0430  -23.4680  -13.5240 N   0  0  0  0  0  0  0  0  0  0  0  0
   23.6840  -24.2010  -14.4640 C   0  0  0  0  0  0  0  0  0  0  0  0
   23.3240  -25.3570  -14.6760 O   0  0  0  0  0  0  0  0  0  0  0  0
   19.8790  -25.3430  -13.0670 N   0  0  0  0  0  0  0  0  0  0  0  0
   20.6710  -24.4250  -13.6330 C   0  0  0  0  0  0  0  0  0  0  0  0
   20.4520  -23.9430  -14.7470 O   0  0  0  0  0  0  0  0  0  0  0  0
   20.1410  -25.6980  -12.1590 H   0  0  0  0  0  0  0  0  0  0  0  0
   18.6050  -25.8020  -13.6080 C   0  0  0  0  0  2  0  0  0  0  0  0
   15.2830  -23.1720  -12.6060 C   0  0  0  0  0  0  0  0  0  0  0  0
   16.3230  -23.3870  -11.6780 C   0  0  0  0  0  3  0  0  0  0  0  0
   17.3970  -24.2340  -11.9990 C   0  0  0  0  0  3  0  0  0  0  0  0
   15.3330  -23.8110  -13.8630 C   0  0  0  0  0  3  0  0  0  0  0  0
   16.4110  -24.6600  -14.1840 C   0  0  0  0  0  3  0  0  0  0  0  0
   17.4480  -24.8760  -13.2550 C   0  0  0  0  0  0  0  0  0  0  0  0
   12.1470  -23.6250  -13.2170 C   0  0  0  0  0  1  0  0  0  0  0  0
   12.8230  -22.4880  -12.4780 C   0  0  0  0  0  0  0  0  0  0  0  0
   12.0210  -21.5120  -11.9210 N   0  0  0  0  0  0  0  0  0  0  0  0
   12.6750  -20.5630  -11.0280 C   0  0  0  0  0  2  0  0  0  0  0  0
   14.4390  -20.8580  -11.3300 S   0  0  0  0  0  0  0  0  0  0  0  0
   14.1290  -22.3430  -12.2160 C   0  0  0  0  0  0  0  0  0  0  0  0
   11.0060  -21.5490  -11.9400 H   0  0  0  0  0  0  0  0  0  0  0  0
   23.3650  -22.3890  -10.5930 O   0  0  0  0  0  0  0  0  0  0  0  0
   23.5660  -23.3120  -10.7160 H   0  0  0  0  0  0  0  0  0  0  0  0
   24.6290  -22.9470  -16.6090 C   0  0  1  0  0  0  0  0  0  0  0  0
   25.9350  -22.3130  -17.1400 C   0  0  0  0  0  1  0  0  0  0  0  0
   24.1060  -23.8800  -17.7230 C   0  0  0  0  0  1  0  0  0  0  0  0
   23.5910  -21.8220  -16.4640 C   0  0  0  0  0  1  0  0  0  0  0  0
  1 44  1  0
  1  2  1  0
  2  3  2  0
  4  2  1  0
  4  6  1  0
  5  1  1  0
  7  9  2  0
  8  9  2  0
  9  4  1  1
 10 14  1  0
 11 15  2  0
 13 11  1  0
 13 10  2  0
 14 12  2  0
 14  9  1  0
 15 12  1  0
 16 17  2  0
 18 13  1  0
 18 16  1  0
 19 18  1  0
 20 16  1  0
 21 20  1  0
 21 22  1  0
 22 36  2  0
 23 21  1  0
 23 28  1  0
 24 25  1  0
 24 23  2  0
 25 26  2  0
 26 28  1  0
 26 27  1  0
 28 29  1  0
 29 35  2  0
 29 30  1  0
 30 31  1  0
 31 32  1  0
 33 34  1  0
 33 31  2  0
 35 33  1  0
 36 37  1  0
 36 35  1  0
 37 38  1  0
 38 39  2  0
 40 41  1  0
 40 39  1  0
 42 40  2  0
 43 42  1  0
 43 37  2  0
 44 50  1  0
 45 53  1  0
 45 46  1  0
 46 47  1  0
 47 70  1  0
 48 47  1  0
 49 48  1  0
 49 45  1  0
 50 49  1  0
 51 50  2  0
 52 55  1  0
 53 52  1  0
 54 53  2  0
 56 62  1  0
 56 52  1  0
 57 68  1  0
 57 58  1  0
 59 58  2  0
 60 57  2  0
 61 60  1  0
 61 62  2  0
 62 59  1  0
 63 64  1  0
 64 68  2  0
 64 65  1  0
 65 66  1  0
 67 66  1  0
 68 67  1  0
 69 65  1  0
 71 70  1  0
 72 75  1  1
 72 44  1  0
 73 72  1  0
 74 72  1  0
M  ISO  4   2 101   4 101  16 100  18 100
M  END
>  <TORSDO>  (133) 
F 14

>  <SCORE>  (133) 
-14.641

>  <name>  (133) 
132

>  <ligand_id>  (133) 
132

>  <original_smiles>  (133) 
[H]OC1([H])C([H])([H])N(C(=O)C([H])(N([H])C(=O)N([H])S(=O)(=O)c2c([H])nc([H])c(N([H])C(=O)C([H])([H])C3([H])N=C(c4c([H])c([H])c(Cl)c([H])c4[H])c4c(sc(C([H])([H])[H])c4C([H])([H])[H])-n4c(C([H])([H])[H])nnc43)c2[H])C(C([H])([H])[H])(C([H])([H])[H])C([H])([H])[H])C([H])(C(=O)N([H])C([H])([H])c2c([H])c([H])c(C3=C(C([H])([H])[H])N([H])C([H])([H])S3)c([H])c2[H])C1([H])[H]

>  <smiles>  (133) 
[H]OC1([H])C([H])([H])N(C(=O)C([H])(N([H])C(=O)N([H])S(=O)(=O)c2c([H])nc([H])c(N([H])C(=O)C([H])([H])C3([H])N=C(c4c([H])c([H])c(Cl)c([H])c4[H])c4c(sc(C([H])([H])[H])c4C([H])([H])[H])-n4c(C([H])([H])[H])nnc43)c2[H])C(C([H])([H])[H])(C([H])([H])[H])C([H])([H])[H])C([H])(C(=O)N([H])C([H])([H])c2c([H])c([H])c(C3=C(C([H])([H])[H])N([H])C([H])([H])S3)c([H])c2[H])C1([H])[H]

$$$$
133:0:0
     RDKit          3D

 76 83  0  0  1  0  0  0  0  0999 V2000
   26.0520  -24.5840  -15.5930 N   0  0  0  0  0  0  0  0  0  0  0  0
   27.0680  -24.9690  -14.8080 C   0  0  0  0  0  0  0  0  0  0  0  0
   27.3710  -24.4230  -13.7480 O   0  0  0  0  0  0  0  0  0  0  0  0
   27.1460  -27.2050  -15.1110 C   0  0  0  0  0  0  0  0  0  0  0  0
   27.7150  -26.0220  -15.2960 N   0  0  0  0  0  0  0  0  0  0  0  0
   27.0490  -27.7750  -14.0180 O   0  0  0  0  0  0  0  0  0  0  0  0
   25.8640  -25.1070  -16.4360 H   0  0  0  0  0  0  0  0  0  0  0  0
   27.7630  -25.9570  -16.3040 H   0  0  0  0  0  0  0  0  0  0  0  0
   25.0140  -27.7880  -16.3680 C   0  0  0  0  0  3  0  0  0  0  0  0
   25.7500  -27.5210  -18.3970 C   0  0  0  0  0  3  0  0  0  0  0  0
   26.3640  -27.5320  -16.3390 C   0  0  0  0  0  0  0  0  0  0  0  0
   26.8370  -27.3700  -17.6450 N   0  0  0  0  0  0  0  0  0  0  0  0
   24.6230  -27.7140  -17.6960 N   0  0  0  0  0  0  0  0  0  0  0  0
   23.2650  -27.7910  -18.1920 C   0  0  0  0  0  2  0  0  0  0  0  0
   22.7350  -29.2200  -18.0850 C   0  0  0  0  0  2  0  0  0  0  0  0
   21.2500  -29.3580  -18.4570 C   0  0  0  0  0  2  0  0  0  0  0  0
   20.6710  -31.5150  -17.4290 C   0  0  0  0  0  0  0  0  0  0  0  0
   20.3260  -31.0020  -16.3590 O   0  0  0  0  0  0  0  0  0  0  0  0
   20.9840  -31.3530  -19.8900 C   0  0  0  0  0  1  0  0  0  0  0  0
   20.9070  -30.7790  -18.5410 N   0  0  0  0  0  0  0  0  0  0  0  0
   20.9340  -33.0310  -17.4990 C   0  0  0  0  0  2  0  0  0  0  0  0
   21.4220  -33.6730  -16.1760 C   0  0  0  0  0  3  0  0  0  0  0  0
   22.7580  -33.1700  -15.8420 N   0  0  0  0  0  0  0  0  0  0  0  0
   21.4550  -35.1920  -16.2310 C   0  0  0  0  0  0  0  0  0  0  0  0
   21.2570  -35.9570  -17.3130 N   0  0  0  0  0  0  0  0  0  0  0  0
   21.4640  -37.2580  -16.8970 N   0  0  0  0  0  0  0  0  0  0  0  0
   21.7790  -37.1770  -15.6000 C   0  0  0  0  0  0  0  0  0  0  0  0
   22.1400  -38.3690  -14.7660 C   0  0  0  0  0  1  0  0  0  0  0  0
   21.7640  -35.9100  -15.1340 N   0  0  0  0  0  0  0  0  0  0  0  0
   21.9970  -35.4020  -13.8410 C   0  0  0  0  0  0  0  0  0  0  0  0
   21.4440  -36.1240  -12.3650 S   0  0  0  0  0  0  0  0  0  0  0  0
   22.0640  -34.7920  -11.4300 C   0  0  0  0  0  0  0  0  0  0  0  0
   21.8980  -34.7950   -9.9460 C   0  0  0  0  0  1  0  0  0  0  0  0
   22.6520  -33.8300  -12.2240 C   0  0  0  0  0  0  0  0  0  0  0  0
   23.2070  -32.5450  -11.6590 C   0  0  0  0  0  1  0  0  0  0  0  0
   22.6440  -34.2070  -13.6160 C   0  0  0  0  0  0  0  0  0  0  0  0
   23.2880  -33.3920  -14.6950 C   0  0  0  0  0  0  0  0  0  0  0  0
   24.6300  -32.8310  -14.4390 C   0  0  0  0  0  0  0  0  0  0  0  0
   25.6120  -33.6000  -13.7730 C   0  0  0  0  0  3  0  0  0  0  0  0
   26.8800  -33.0490  -13.5010 C   0  0  0  0  0  3  0  0  0  0  0  0
   27.1730  -31.7370  -13.9070 C   0  0  0  0  0  0  0  0  0  0  0  0
   28.7200  -31.0450  -13.5850 Cl  0  0  0  0  0  0  0  0  0  0  0  0
   26.2030  -30.9950  -14.5950 C   0  0  0  0  0  3  0  0  0  0  0  0
   24.9290  -31.5200  -14.8520 C   0  0  0  0  0  3  0  0  0  0  0  0
   25.0580  -23.5570  -15.3210 C   0  0  0  0  0  3  0  0  0  0  0  0
   22.0330  -24.0430  -12.8540 C   0  0  0  0  0  3  0  0  0  0  0  0
   21.5870  -22.8660  -11.9720 C   0  0  0  0  0  2  0  0  0  0  0  0
   22.8470  -22.0570  -11.7560 C   0  0  0  0  0  3  0  0  0  0  0  0
   23.6810  -22.2870  -13.0150 C   0  0  0  0  0  2  0  0  0  0  0  0
   23.2030  -23.5420  -13.6060 N   0  0  0  0  0  0  0  0  0  0  0  0
   23.8340  -24.2110  -14.6050 C   0  0  0  0  0  0  0  0  0  0  0  0
   23.4910  -25.3490  -14.9410 O   0  0  0  0  0  0  0  0  0  0  0  0
   20.0530  -25.4370  -13.1400 N   0  0  0  0  0  0  0  0  0  0  0  0
   20.8410  -24.5160  -13.7040 C   0  0  0  0  0  0  0  0  0  0  0  0
   20.6110  -24.0150  -14.8060 O   0  0  0  0  0  0  0  0  0  0  0  0
   20.3280  -25.8100  -12.2420 H   0  0  0  0  0  0  0  0  0  0  0  0
   18.7710  -25.8840  -13.6700 C   0  0  0  0  0  2  0  0  0  0  0  0
   15.4780  -23.2320  -12.6350 C   0  0  0  0  0  0  0  0  0  0  0  0
   16.5270  -23.4480  -11.7200 C   0  0  0  0  0  3  0  0  0  0  0  0
   17.5940  -24.3010  -12.0520 C   0  0  0  0  0  3  0  0  0  0  0  0
   15.5080  -23.8770  -13.8890 C   0  0  0  0  0  3  0  0  0  0  0  0
   16.5770  -24.7310  -14.2220 C   0  0  0  0  0  3  0  0  0  0  0  0
   17.6260  -24.9480  -13.3050 C   0  0  0  0  0  0  0  0  0  0  0  0
   12.3340  -23.6600  -13.2300 C   0  0  0  0  0  1  0  0  0  0  0  0
   13.0230  -22.5320  -12.4890 C   0  0  0  0  0  0  0  0  0  0  0  0
   12.2320  -21.5540  -11.9210 N   0  0  0  0  0  0  0  0  0  0  0  0
   12.8980  -20.6130  -11.0270 C   0  0  0  0  0  2  0  0  0  0  0  0
   14.6570  -20.9200  -11.3400 S   0  0  0  0  0  0  0  0  0  0  0  0
   14.3310  -22.3980  -12.2340 C   0  0  0  0  0  0  0  0  0  0  0  0
   11.2160  -21.5830  -11.9350 H   0  0  0  0  0  0  0  0  0  0  0  0
   23.5620  -22.5470  -10.6330 O   0  0  0  0  0  0  0  0  0  0  0  0
   23.7800  -23.4600  -10.7900 H   0  0  0  0  0  0  0  0  0  0  0  0
   24.7000  -22.8980  -16.7020 C   0  0  1  0  0  0  0  0  0  0  0  0
   25.9540  -22.1720  -17.2460 C   0  0  0  0  0  1  0  0  0  0  0  0
   24.2360  -23.9130  -17.7750 C   0  0  0  0  0  1  0  0  0  0  0  0
   23.5990  -21.8310  -16.5410 C   0  0  0  0  0  1  0  0  0  0  0  0
  1 45  1  0
  1  2  1  0
  2  3  2  0
  4  6  2  0
  5  4  1  0
  5  2  1  0
  7  1  1  0
  8  5  1  0
  9 11  2  0
 10 13  1  0
 10 12  2  0
 11  4  1  0
 12 11  1  0
 13  9  1  0
 14 15  1  0
 14 13  1  0
 16 15  1  0
 17 18  2  0
 19 20  1  0
 20 16  1  0
 20 17  1  0
 21 17  1  0
 22 21  1  0
 22 23  1  0
 23 37  2  0
 24 22  1  0
 24 29  1  0
 25 26  1  0
 25 24  2  0
 26 27  2  0
 27 29  1  0
 27 28  1  0
 29 30  1  0
 30 36  2  0
 30 31  1  0
 31 32  1  0
 32 33  1  0
 34 35  1  0
 34 32  2  0
 36 34  1  0
 37 38  1  0
 37 36  1  0
 38 39  1  0
 39 40  2  0
 41 42  1  0
 41 40  1  0
 43 41  2  0
 44 43  1  0
 44 38  2  0
 45 51  1  0
 46 54  1  0
 46 47  1  0
 47 48  1  0
 48 71  1  0
 49 48  1  0
 50 49  1  0
 50 46  1  0
 51 50  1  0
 52 51  2  0
 53 56  1  0
 54 53  1  0
 55 54  2  0
 57 63  1  0
 57 53  1  0
 58 69  1  0
 58 59  1  0
 60 59  2  0
 61 58  2  0
 62 61  1  0
 62 63  2  0
 63 60  1  0
 64 65  1  0
 65 69  2  0
 65 66  1  0
 66 67  1  0
 68 67  1  0
 69 68  1  0
 70 66  1  0
 72 71  1  0
 73 76  1  1
 73 45  1  0
 74 73  1  0
 75 73  1  0
M  ISO  4   2 101   5 101  17 100  20 100
M  END
>  <TORSDO>  (134) 
F 16

>  <SCORE>  (134) 
-14.217

>  <name>  (134) 
133

>  <ligand_id>  (134) 
133

>  <original_smiles>  (134) 
[H]OC1([H])C([H])([H])N(C(=O)C([H])(N([H])C(=O)N([H])C(=O)c2nc([H])n(C([H])([H])C([H])([H])C([H])([H])N(C(=O)C([H])([H])C3([H])N=C(c4c([H])c([H])c(Cl)c([H])c4[H])c4c(sc(C([H])([H])[H])c4C([H])([H])[H])-n4c(C([H])([H])[H])nnc43)C([H])([H])[H])c2[H])C(C([H])([H])[H])(C([H])([H])[H])C([H])([H])[H])C([H])(C(=O)N([H])C([H])([H])c2c([H])c([H])c(C3=C(C([H])([H])[H])N([H])C([H])([H])S3)c([H])c2[H])C1([H])[H]

>  <smiles>  (134) 
[H]OC1([H])C([H])([H])N(C(=O)C([H])(N([H])C(=O)N([H])C(=O)c2nc([H])n(C([H])([H])C([H])([H])C([H])([H])N(C(=O)C([H])([H])C3([H])N=C(c4c([H])c([H])c(Cl)c([H])c4[H])c4c(sc(C([H])([H])[H])c4C([H])([H])[H])-n4c(C([H])([H])[H])nnc43)C([H])([H])[H])c2[H])C(C([H])([H])[H])(C([H])([H])[H])C([H])([H])[H])C([H])(C(=O)N([H])C([H])([H])c2c([H])c([H])c(C3=C(C([H])([H])[H])N([H])C([H])([H])S3)c([H])c2[H])C1([H])[H]

$$$$
134:0:0
     RDKit          3D

 72 81  0  0  1  0  0  0  0  0999 V2000
   25.7390  -24.8310  -15.6420 N   0  0  0  0  0  0  0  0  0  0  0  0
   26.3490  -25.6380  -14.8050 C   0  0  0  0  0  0  0  0  0  0  0  0
   27.0240  -25.1710  -13.8550 O   0  0  0  0  0  0  0  0  0  0  0  0
   26.0990  -26.9550  -15.2090 N   0  0  0  0  0  0  0  0  0  0  0  0
   25.3780  -25.3300  -16.4400 H   0  0  0  0  0  0  0  0  0  0  0  0
   26.7590  -27.5930  -14.7880 H   0  0  0  0  0  0  0  0  0  0  0  0
   24.9270  -28.0270  -17.5970 C   0  0  0  0  0  2  0  0  0  0  0  0
   22.5350  -27.9910  -16.9410 C   0  0  0  0  0  2  0  0  0  0  0  0
   23.8870  -27.2500  -16.8070 C   0  0  2  0  0  0  0  0  0  0  0  0
   24.5420  -28.9760  -16.4630 C   0  0  1  0  0  0  0  0  0  0  0  0
   22.9890  -29.3820  -16.5120 C   0  0  0  0  0  3  0  0  0  0  0  0
   24.7340  -27.6620  -15.5420 C   0  0  0  0  0  3  0  0  0  0  0  0
   21.3020  -31.3370  -17.0760 C   0  0  0  0  0  0  0  0  0  0  0  0
   20.3590  -30.8790  -16.4310 O   0  0  0  0  0  0  0  0  0  0  0  0
   22.4600  -30.5900  -17.2880 N   0  0  0  0  0  0  0  0  0  0  0  0
   23.1690  -31.0750  -17.8240 H   0  0  0  0  0  0  0  0  0  0  0  0
   21.2660  -32.8780  -17.3860 C   0  0  0  0  0  2  0  0  0  0  0  0
   21.5700  -33.6810  -16.0740 C   0  0  0  0  0  3  0  0  0  0  0  0
   22.9090  -33.2740  -15.6760 N   0  0  0  0  0  0  0  0  0  0  0  0
   21.5150  -35.2130  -16.0820 C   0  0  0  0  0  0  0  0  0  0  0  0
   21.3260  -36.0170  -17.1370 N   0  0  0  0  0  0  0  0  0  0  0  0
   21.4950  -37.3090  -16.6640 N   0  0  0  0  0  0  0  0  0  0  0  0
   21.7790  -37.1900  -15.3630 C   0  0  0  0  0  0  0  0  0  0  0  0
   22.1100  -38.3560  -14.4770 C   0  0  0  0  0  1  0  0  0  0  0  0
   21.7660  -35.9050  -14.9430 N   0  0  0  0  0  0  0  0  0  0  0  0
   21.9680  -35.3710  -13.6510 C   0  0  0  0  0  0  0  0  0  0  0  0
   21.3640  -36.0380  -12.1670 S   0  0  0  0  0  0  0  0  0  0  0  0
   21.9760  -34.6840  -11.2550 C   0  0  0  0  0  0  0  0  0  0  0  0
   21.7700  -34.6340   -9.7760 C   0  0  0  0  0  1  0  0  0  0  0  0
   22.6010  -33.7560  -12.0590 C   0  0  0  0  0  0  0  0  0  0  0  0
   23.1530  -32.4570  -11.5310 C   0  0  0  0  0  1  0  0  0  0  0  0
   22.6390  -34.1890  -13.4310 C   0  0  0  0  0  0  0  0  0  0  0  0
   23.3560  -33.4440  -14.4970 C   0  0  0  0  0  0  0  0  0  0  0  0
   24.6870  -32.8860  -14.2040 C   0  0  0  0  0  0  0  0  0  0  0  0
   25.6940  -33.6670  -13.6110 C   0  0  0  0  0  3  0  0  0  0  0  0
   26.9530  -33.0940  -13.3360 C   0  0  0  0  0  3  0  0  0  0  0  0
   27.2080  -31.7490  -13.6600 C   0  0  0  0  0  0  0  0  0  0  0  0
   28.7450  -31.0410  -13.3440 Cl  0  0  0  0  0  0  0  0  0  0  0  0
   26.1940  -30.9640  -14.2180 C   0  0  0  0  0  3  0  0  0  0  0  0
   24.9370  -31.5370  -14.4750 C   0  0  0  0  0  3  0  0  0  0  0  0
   24.9030  -23.6840  -15.3180 C   0  0  0  0  0  3  0  0  0  0  0  0
   21.8650  -23.9930  -12.8190 C   0  0  0  0  0  3  0  0  0  0  0  0
   21.4400  -22.8000  -11.9550 C   0  0  0  0  0  2  0  0  0  0  0  0
   22.7230  -22.0200  -11.7410 C   0  0  0  0  0  3  0  0  0  0  0  0
   23.5600  -22.2740  -12.9940 C   0  0  0  0  0  2  0  0  0  0  0  0
   23.0490  -23.5180  -13.5700 N   0  0  0  0  0  0  0  0  0  0  0  0
   23.6400  -24.2170  -14.5630 C   0  0  0  0  0  0  0  0  0  0  0  0
   23.2080  -25.3290  -14.8510 O   0  0  0  0  0  0  0  0  0  0  0  0
   19.8850  -25.3970  -13.1120 N   0  0  0  0  0  0  0  0  0  0  0  0
   20.6710  -24.4690  -13.6690 C   0  0  0  0  0  0  0  0  0  0  0  0
   20.4440  -23.9710  -14.7740 O   0  0  0  0  0  0  0  0  0  0  0  0
   20.1560  -25.7690  -12.2120 H   0  0  0  0  0  0  0  0  0  0  0  0
   18.6070  -25.8420  -13.6510 C   0  0  0  0  0  2  0  0  0  0  0  0
   15.3190  -23.1800  -12.6270 C   0  0  0  0  0  0  0  0  0  0  0  0
   16.3570  -23.4120  -11.7020 C   0  0  0  0  0  3  0  0  0  0  0  0
   17.4210  -24.2690  -12.0300 C   0  0  0  0  0  3  0  0  0  0  0  0
   15.3590  -23.8120  -13.8880 C   0  0  0  0  0  3  0  0  0  0  0  0
   16.4260  -24.6700  -14.2170 C   0  0  0  0  0  3  0  0  0  0  0  0
   17.4620  -24.9040  -13.2900 C   0  0  0  0  0  0  0  0  0  0  0  0
   12.1760  -23.6000  -13.2260 C   0  0  0  0  0  1  0  0  0  0  0  0
   12.8670  -22.4710  -12.4860 C   0  0  0  0  0  0  0  0  0  0  0  0
   12.0770  -21.4900  -11.9210 N   0  0  0  0  0  0  0  0  0  0  0  0
   12.7440  -20.5510  -11.0280 C   0  0  0  0  0  2  0  0  0  0  0  0
   14.5020  -20.8620  -11.3390 S   0  0  0  0  0  0  0  0  0  0  0  0
   14.1760  -22.3410  -12.2300 C   0  0  0  0  0  0  0  0  0  0  0  0
   11.0610  -21.5190  -11.9350 H   0  0  0  0  0  0  0  0  0  0  0  0
   23.4180  -22.5200  -10.6100 O   0  0  0  0  0  0  0  0  0  0  0  0
   23.6110  -23.4400  -10.7590 H   0  0  0  0  0  0  0  0  0  0  0  0
   24.6190  -22.9860  -16.7020 C   0  0  1  0  0  0  0  0  0  0  0  0
   25.9300  -22.3510  -17.2150 C   0  0  0  0  0  1  0  0  0  0  0  0
   24.1200  -23.9280  -17.8200 C   0  0  0  0  0  1  0  0  0  0  0  0
   23.5670  -21.8700  -16.5830 C   0  0  0  0  0  1  0  0  0  0  0  0
  1 41  1  0
  1  2  1  0
  2  3  2  0
  4  2  1  0
  4  6  1  0
  5  1  1  0
  9  8  1  6
  8 11  1  0
  9  7  1  0
  9 10  1  0
  9 12  1  0
 10  7  1  6
 10 12  1  0
 11 15  1  0
 11 10  1  0
 12  4  1  0
 13 14  2  0
 15 13  1  0
 16 15  1  0
 17 13  1  0
 18 17  1  0
 18 19  1  0
 19 33  2  0
 20 18  1  0
 20 25  1  0
 21 22  1  0
 21 20  2  0
 22 23  2  0
 23 25  1  0
 23 24  1  0
 25 26  1  0
 26 32  2  0
 26 27  1  0
 27 28  1  0
 28 29  1  0
 30 31  1  0
 30 28  2  0
 32 30  1  0
 33 34  1  0
 33 32  1  0
 34 35  1  0
 35 36  2  0
 37 38  1  0
 37 36  1  0
 39 37  2  0
 40 39  1  0
 40 34  2  0
 41 47  1  0
 42 50  1  0
 42 43  1  0
 43 44  1  0
 44 67  1  0
 45 44  1  0
 46 45  1  0
 46 42  1  0
 47 46  1  0
 48 47  2  0
 49 52  1  0
 50 49  1  0
 51 50  2  0
 53 59  1  0
 53 49  1  0
 54 65  1  0
 54 55  1  0
 56 55  2  0
 57 54  2  0
 58 57  1  0
 58 59  2  0
 59 56  1  0
 60 61  1  0
 61 65  2  0
 61 62  1  0
 62 63  1  0
 64 63  1  0
 65 64  1  0
 66 62  1  0
 68 67  1  0
 69 72  1  1
 69 41  1  0
 70 69  1  0
 71 69  1  0
M  ISO  4   2 101   4 101  13 100  15 100
M  END
>  <TORSDO>  (135) 
F 13

>  <SCORE>  (135) 
-15.034

>  <name>  (135) 
134

>  <ligand_id>  (135) 
134

>  <original_smiles>  (135) 
[H]OC1([H])C([H])([H])N(C(=O)C([H])(N([H])C(=O)N([H])C2([H])C3([H])C([H])([H])C([H])(N([H])C(=O)C([H])([H])C4([H])N=C(c5c([H])c([H])c(Cl)c([H])c5[H])c5c(sc(C([H])([H])[H])c5C([H])([H])[H])-n5c(C([H])([H])[H])nnc54)C2([H])C3([H])[H])C(C([H])([H])[H])(C([H])([H])[H])C([H])([H])[H])C([H])(C(=O)N([H])C([H])([H])c2c([H])c([H])c(C3=C(C([H])([H])[H])N([H])C([H])([H])S3)c([H])c2[H])C1([H])[H]

>  <smiles>  (135) 
[H]OC1([H])C([H])([H])N(C(=O)C([H])(N([H])C(=O)N([H])C2([H])C3([H])C([H])([H])C([H])(N([H])C(=O)C([H])([H])C4([H])N=C(c5c([H])c([H])c(Cl)c([H])c5[H])c5c(sc(C([H])([H])[H])c5C([H])([H])[H])-n5c(C([H])([H])[H])nnc54)C2([H])C3([H])[H])C(C([H])([H])[H])(C([H])([H])[H])C([H])([H])[H])C([H])(C(=O)N([H])C([H])([H])c2c([H])c([H])c(C3=C(C([H])([H])[H])N([H])C([H])([H])S3)c([H])c2[H])C1([H])[H]

$$$$
135:0:0
     RDKit          3D

 85 93  0  0  1  0  0  0  0  0999 V2000
   23.5500  -27.5180  -18.9310 C   0  0  0  0  0  0  0  0  0  0  0  0
   21.8540  -24.8320  -17.1370 C   0  0  0  0  0  2  0  0  0  0  0  0
   23.0640  -24.9990  -16.2190 C   0  0  0  0  0  3  0  0  0  0  0  0
   24.0260  -25.5660  -17.2970 C   0  0  0  0  0  3  0  0  0  0  0  0
   21.7640  -26.0950  -17.9580 C   0  0  0  0  0  3  0  0  0  0  0  0
   25.3800  -26.1020  -16.8070 C   0  0  0  0  0  1  0  0  0  0  0  0
   23.1820  -26.4850  -18.1230 N   0  0  0  0  0  0  0  0  0  0  0  0
   22.5610  -27.9010  -19.7580 N   0  0  0  0  0  0  0  0  0  0  0  0
   24.6520  -28.0670  -18.9220 O   0  0  0  0  0  0  0  0  0  0  0  0
   21.8210  -27.2320  -19.8960 H   0  0  0  0  0  0  0  0  0  0  0  0
   24.0910  -22.5140  -17.0950 N   0  0  0  0  0  0  0  0  0  0  0  0
   23.5800  -22.5350  -15.8750 C   0  0  0  0  0  0  0  0  0  0  0  0
   23.3200  -21.5110  -15.2340 O   0  0  0  0  0  0  0  0  0  0  0  0
   23.5070  -23.8110  -15.4240 N   0  0  0  0  0  0  0  0  0  0  0  0
   24.3250  -23.4270  -17.4450 H   0  0  0  0  0  0  0  0  0  0  0  0
   23.3260  -23.8820  -14.4320 H   0  0  0  0  0  0  0  0  0  0  0  0
   24.2350  -21.4760  -18.0930 C   0  0  0  0  0  3  0  0  0  0  0  0
   21.5650  -20.6530  -20.8590 C   0  0  0  0  0  3  0  0  0  0  0  0
   21.4310  -19.2070  -21.3630 C   0  0  0  0  0  2  0  0  0  0  0  0
   21.8500  -18.3560  -20.1830 C   0  0  0  0  0  3  0  0  0  0  0  0
   22.8630  -19.2080  -19.4220 C   0  0  0  0  0  2  0  0  0  0  0  0
   22.6010  -20.5990  -19.8060 N   0  0  0  0  0  0  0  0  0  0  0  0
   23.1340  -21.6780  -19.1820 C   0  0  0  0  0  0  0  0  0  0  0  0
   22.7410  -22.8240  -19.4330 O   0  0  0  0  0  0  0  0  0  0  0  0
   20.8340  -21.8320  -22.8650 N   0  0  0  0  0  0  0  0  0  0  0  0
   21.8640  -21.5800  -22.0490 C   0  0  0  0  0  0  0  0  0  0  0  0
   23.0040  -22.0010  -22.2530 O   0  0  0  0  0  0  0  0  0  0  0  0
   19.9280  -21.4600  -22.6120 H   0  0  0  0  0  0  0  0  0  0  0  0
   20.9290  -22.5100  -24.1510 C   0  0  0  0  0  2  0  0  0  0  0  0
   22.5650  -19.9870  -27.2990 C   0  0  0  0  0  0  0  0  0  0  0  0
   21.4700  -19.5390  -26.5310 C   0  0  0  0  0  3  0  0  0  0  0  0
   20.9420  -20.3500  -25.5110 C   0  0  0  0  0  3  0  0  0  0  0  0
   23.1290  -21.2520  -27.0330 C   0  0  0  0  0  3  0  0  0  0  0  0
   22.5990  -22.0630  -26.0110 C   0  0  0  0  0  3  0  0  0  0  0  0
   21.5020  -21.6180  -25.2460 C   0  0  0  0  0  0  0  0  0  0  0  0
   23.5650  -20.8850  -30.2330 C   0  0  0  0  0  1  0  0  0  0  0  0
   23.5000  -19.4970  -29.6280 C   0  0  0  0  0  0  0  0  0  0  0  0
   23.8540  -18.4290  -30.4260 N   0  0  0  0  0  0  0  0  0  0  0  0
   23.5660  -17.0990  -29.9000 C   0  0  0  0  0  2  0  0  0  0  0  0
   23.1720  -17.4190  -28.1590 S   0  0  0  0  0  0  0  0  0  0  0  0
   23.0510  -19.1530  -28.4130 C   0  0  0  0  0  0  0  0  0  0  0  0
   24.1070  -18.5250  -31.4050 H   0  0  0  0  0  0  0  0  0  0  0  0
   20.7400  -18.1010  -19.3380 O   0  0  0  0  0  0  0  0  0  0  0  0
   20.3900  -18.9350  -19.0380 H   0  0  0  0  0  0  0  0  0  0  0  0
   25.7090  -21.6010  -18.6470 C   0  0  1  0  0  0  0  0  0  0  0  0
   26.5910  -22.2670  -17.5630 C   0  0  0  0  0  1  0  0  0  0  0  0
   25.8740  -22.4270  -19.9490 C   0  0  0  0  0  1  0  0  0  0  0  0
   26.3110  -20.2130  -18.9340 C   0  0  0  0  0  1  0  0  0  0  0  0
   19.9440  -29.3830  -20.3290 C   0  0  0  0  0  2  0  0  0  0  0  0
   21.0830  -29.0510  -21.3020 C   0  0  0  0  0  2  0  0  0  0  0  0
   22.0470  -30.3100  -19.4830 C   0  0  0  0  0  2  0  0  0  0  0  0
   20.5030  -30.4920  -19.4260 C   0  0  0  0  0  3  0  0  0  0  0  0
   22.3620  -29.1610  -20.4670 C   0  0  0  0  0  3  0  0  0  0  0  0
   20.2270  -31.3000  -17.0390 C   0  0  0  0  0  0  0  0  0  0  0  0
   19.8180  -31.0960  -15.8910 O   0  0  0  0  0  0  0  0  0  0  0  0
   19.9580  -30.4480  -18.0540 N   0  0  0  0  0  0  0  0  0  0  0  0
   19.2540  -29.7490  -17.8690 H   0  0  0  0  0  0  0  0  0  0  0  0
   21.0980  -32.5300  -17.3280 C   0  0  0  0  0  2  0  0  0  0  0  0
   21.6340  -33.2460  -16.0720 C   0  0  0  0  0  3  0  0  0  0  0  0
   23.0010  -32.8050  -15.7750 N   0  0  0  0  0  0  0  0  0  0  0  0
   21.6010  -34.7570  -16.2180 C   0  0  0  0  0  0  0  0  0  0  0  0
   21.3350  -35.4490  -17.3340 N   0  0  0  0  0  0  0  0  0  0  0  0
   21.5060  -36.7770  -17.0010 N   0  0  0  0  0  0  0  0  0  0  0  0
   21.8750  -36.7840  -15.7160 C   0  0  0  0  0  0  0  0  0  0  0  0
   22.2220  -38.0330  -14.9670 C   0  0  0  0  0  1  0  0  0  0  0  0
   21.9260  -35.5460  -15.1790 N   0  0  0  0  0  0  0  0  0  0  0  0
   22.2270  -35.1190  -13.8710 C   0  0  0  0  0  0  0  0  0  0  0  0
   21.6970  -35.9000  -12.4180 S   0  0  0  0  0  0  0  0  0  0  0  0
   22.4020  -34.6460  -11.4370 C   0  0  0  0  0  0  0  0  0  0  0  0
   22.2880  -34.7270   -9.9490 C   0  0  0  0  0  1  0  0  0  0  0  0
   22.9970  -33.6640  -12.1990 C   0  0  0  0  0  0  0  0  0  0  0  0
   23.6210  -32.4340  -11.5900 C   0  0  0  0  0  1  0  0  0  0  0  0
   22.9270  -33.9630  -13.6070 C   0  0  0  0  0  0  0  0  0  0  0  0
   23.5620  -33.1120  -14.6650 C   0  0  0  0  0  0  0  0  0  0  0  0
   24.9310  -32.6110  -14.4290 C   0  0  0  0  0  0  0  0  0  0  0  0
   25.8620  -33.4020  -13.7190 C   0  0  0  0  0  3  0  0  0  0  0  0
   27.1540  -32.9100  -13.4570 C   0  0  0  0  0  3  0  0  0  0  0  0
   27.5170  -31.6260  -13.8930 C   0  0  0  0  0  0  0  0  0  0  0  0
   29.0920  -31.0070  -13.5590 Cl  0  0  0  0  0  0  0  0  0  0  0  0
   26.5860  -30.8410  -14.5930 C   0  0  0  0  0  3  0  0  0  0  0  0
   25.3000  -31.3290  -14.8780 C   0  0  0  0  0  3  0  0  0  0  0  0
   19.3860  -26.7580  -17.4710 C   0  0  0  0  0  1  0  0  0  0  0  0
   20.8280  -27.0600  -17.3090 N   0  0  0  0  0  4  0  0  0  0  0  0
   21.0140  -27.1030  -16.3200 H   0  0  0  0  0  0  0  0  0  0  0  0
   20.9710  -27.9840  -17.6850 H   0  0  0  0  0  0  0  0  0  0  0  0
  1  9  2  0
  1  7  1  0
  2  3  1  0
  3 14  1  0
  4  6  1  0
  4  3  1  0
  5 83  1  0
  5  2  1  0
  7  5  1  0
  7  4  1  0
  8  1  1  0
 10  8  1  0
 11 12  1  0
 12 14  1  0
 12 13  2  0
 14 16  1  0
 15 11  1  0
 17 23  1  0
 17 11  1  0
 18 26  1  0
 18 22  1  0
 19 18  1  0
 19 20  1  0
 20 21  1  0
 20 43  1  0
 22 21  1  0
 22 23  1  0
 24 23  2  0
 25 28  1  0
 25 26  1  0
 27 26  2  0
 29 25  1  0
 30 33  2  0
 30 31  1  0
 31 32  2  0
 32 35  1  0
 33 34  1  0
 34 35  2  0
 35 29  1  0
 36 37  1  0
 37 41  2  0
 38 39  1  0
 38 37  1  0
 39 40  1  0
 41 40  1  0
 41 30  1  0
 42 38  1  0
 43 44  1  0
 45 17  1  0
 45 46  1  1
 47 45  1  0
 48 45  1  0
 49 52  1  0
 50 53  1  0
 50 49  1  0
 51 52  1  0
 52 56  1  0
 53  8  1  0
 53 51  1  0
 54 55  2  0
 56 57  1  0
 56 54  1  0
 58 54  1  0
 59 58  1  0
 59 60  1  0
 60 74  2  0
 61 59  1  0
 61 66  1  0
 62 63  1  0
 62 61  2  0
 63 64  2  0
 64 66  1  0
 64 65  1  0
 66 67  1  0
 67 73  2  0
 67 68  1  0
 68 69  1  0
 69 70  1  0
 71 72  1  0
 71 69  2  0
 73 71  1  0
 74 75  1  0
 74 73  1  0
 75 76  1  0
 76 77  2  0
 78 79  1  0
 78 77  1  0
 80 78  2  0
 81 80  1  0
 81 75  2  0
 82 83  1  0
 83 84  1  0
 85 83  1  0
M  ISO  4  12 101  14 101  54 100  56 100
M  END
>  <TORSDO>  (136) 
F 15

>  <SCORE>  (136) 
-8.219

>  <name>  (136) 
135

>  <ligand_id>  (136) 
135

>  <original_smiles>  (136) 
[H]OC1([H])C([H])([H])N(C(=O)C([H])(N([H])C(=O)N([H])C2([H])C([H])([H])C([H])([N+]([H])([H])C([H])([H])[H])N(C(=O)N([H])C3([H])C([H])([H])C([H])([H])C([H])(N([H])C(=O)C([H])([H])C4([H])N=C(c5c([H])c([H])c(Cl)c([H])c5[H])c5c(sc(C([H])([H])[H])c5C([H])([H])[H])-n5c(C([H])([H])[H])nnc54)C3([H])[H])C2([H])C([H])([H])[H])C(C([H])([H])[H])(C([H])([H])[H])C([H])([H])[H])C([H])(C(=O)N([H])C([H])([H])c2c([H])c([H])c(C3=C(C([H])([H])[H])N([H])C([H])([H])S3)c([H])c2[H])C1([H])[H]

>  <smiles>  (136) 
[H]OC1([H])C([H])([H])N(C(=O)C([H])(N([H])C(=O)N([H])C2([H])C([H])([H])C([H])([N+]([H])([H])C([H])([H])[H])N(C(=O)N([H])C3([H])C([H])([H])C([H])([H])C([H])(N([H])C(=O)C([H])([H])C4([H])N=C(c5c([H])c([H])c(Cl)c([H])c5[H])c5c(sc(C([H])([H])[H])c5C([H])([H])[H])-n5c(C([H])([H])[H])nnc54)C3([H])[H])C2([H])C([H])([H])[H])C(C([H])([H])[H])(C([H])([H])[H])C([H])([H])[H])C([H])(C(=O)N([H])C([H])([H])c2c([H])c([H])c(C3=C(C([H])([H])[H])N([H])C([H])([H])S3)c([H])c2[H])C1([H])[H]

$$$$
136:0:0
     RDKit          3D

 78 85  0  0  1  0  0  0  0  0999 V2000
   24.1020  -27.3030  -14.8240 C   0  0  0  0  0  0  0  0  0  0  0  0
   23.5810  -26.5330  -14.0140 O   0  0  0  0  0  0  0  0  0  0  0  0
   23.3050  -28.8980  -16.9030 C   0  0  0  0  0  2  0  0  0  0  0  0
   21.1210  -29.4770  -15.9710 C   0  0  0  0  0  2  0  0  0  0  0  0
   23.2660  -28.5120  -15.3750 C   0  0  0  0  0  3  0  0  0  0  0  0
   21.9510  -29.6310  -17.2690 C   0  0  0  0  0  3  0  0  0  0  0  0
   21.7480  -28.3480  -15.1400 C   0  0  0  0  0  3  0  0  0  0  0  0
   20.9650  -31.9390  -17.7480 C   0  0  0  0  0  0  0  0  0  0  0  0
   19.8590  -31.5010  -17.4800 O   0  0  0  0  0  0  0  0  0  0  0  0
   22.0130  -31.0590  -17.7540 N   0  0  0  0  0  0  0  0  0  0  0  0
   22.9280  -31.4490  -17.9390 H   0  0  0  0  0  0  0  0  0  0  0  0
   21.1680  -33.4850  -17.7350 C   0  0  0  0  0  2  0  0  0  0  0  0
   21.5570  -33.9130  -16.2890 C   0  0  0  0  0  3  0  0  0  0  0  0
   22.8530  -33.3000  -16.0470 N   0  0  0  0  0  0  0  0  0  0  0  0
   21.6540  -35.3920  -15.9320 C   0  0  0  0  0  0  0  0  0  0  0  0
   21.5420  -36.4400  -16.7560 N   0  0  0  0  0  0  0  0  0  0  0  0
   21.8200  -37.5570  -15.9840 N   0  0  0  0  0  0  0  0  0  0  0  0
   22.0870  -37.0970  -14.7570 C   0  0  0  0  0  0  0  0  0  0  0  0
   22.5110  -37.9790  -13.6180 C   0  0  0  0  0  1  0  0  0  0  0  0
   21.9610  -35.7550  -14.6640 N   0  0  0  0  0  0  0  0  0  0  0  0
   22.1090  -34.9000  -13.5470 C   0  0  0  0  0  0  0  0  0  0  0  0
   21.5520  -35.2250  -11.9360 S   0  0  0  0  0  0  0  0  0  0  0  0
   22.0400  -33.6410  -11.3960 C   0  0  0  0  0  0  0  0  0  0  0  0
   21.8210  -33.2500   -9.9690 C   0  0  0  0  0  1  0  0  0  0  0  0
   22.5900  -32.8930  -12.4140 C   0  0  0  0  0  0  0  0  0  0  0  0
   23.0300  -31.4650  -12.2310 C   0  0  0  0  0  1  0  0  0  0  0  0
   22.6730  -33.6470  -13.6380 C   0  0  0  0  0  0  0  0  0  0  0  0
   23.3240  -33.1340  -14.8770 C   0  0  0  0  0  0  0  0  0  0  0  0
   24.6050  -32.4110  -14.7800 C   0  0  0  0  0  0  0  0  0  0  0  0
   25.6260  -32.8590  -13.9220 C   0  0  0  0  0  3  0  0  0  0  0  0
   26.8250  -32.1300  -13.8190 C   0  0  0  0  0  3  0  0  0  0  0  0
   27.0100  -30.9600  -14.5790 C   0  0  0  0  0  0  0  0  0  0  0  0
   28.4660  -30.0520  -14.4360 Cl  0  0  0  0  0  0  0  0  0  0  0  0
   26.0110  -30.5440  -15.4720 C   0  0  0  0  0  3  0  0  0  0  0  0
   24.8160  -31.2710  -15.5690 C   0  0  0  0  0  3  0  0  0  0  0  0
   20.2820  -27.4910  -13.2860 C   0  0  0  0  0  1  0  0  0  0  0  0
   21.3400  -28.4290  -13.7110 N   0  0  0  0  0  4  0  0  0  0  0  0
   22.1330  -28.2430  -13.1170 H   0  0  0  0  0  0  0  0  0  0  0  0
   21.0080  -29.3580  -13.5150 H   0  0  0  0  0  0  0  0  0  0  0  0
   25.6110  -27.1070  -15.1230 C   0  0  0  0  0  2  0  0  0  0  0  0
   25.0620  -24.4510  -17.1750 N   0  0  0  0  0  0  0  0  0  0  0  0
   25.9150  -24.9300  -16.2810 C   0  0  0  0  0  0  0  0  0  0  0  0
   26.4640  -24.2470  -15.4100 O   0  0  0  0  0  0  0  0  0  0  0  0
   25.8360  -26.2670  -16.3030 N   0  0  0  0  0  0  0  0  0  0  0  0
   24.7430  -25.0920  -17.8840 H   0  0  0  0  0  0  0  0  0  0  0  0
   25.4930  -26.6770  -17.1600 H   0  0  0  0  0  0  0  0  0  0  0  0
   24.0700  -23.4120  -16.8870 C   0  0  0  0  0  3  0  0  0  0  0  0
   21.2140  -24.2510  -14.2870 C   0  0  0  0  0  3  0  0  0  0  0  0
   20.9620  -23.3100  -13.1000 C   0  0  0  0  0  2  0  0  0  0  0  0
   22.3140  -22.6880  -12.8220 C   0  0  0  0  0  3  0  0  0  0  0  0
   23.0220  -22.6560  -14.1790 C   0  0  0  0  0  2  0  0  0  0  0  0
   22.3690  -23.6710  -15.0100 N   0  0  0  0  0  0  0  0  0  0  0  0
   22.8270  -24.0850  -16.2200 C   0  0  0  0  0  0  0  0  0  0  0  0
   22.2870  -25.0140  -16.8240 O   0  0  0  0  0  0  0  0  0  0  0  0
   19.0690  -25.3480  -14.6590 N   0  0  0  0  0  0  0  0  0  0  0  0
   19.9190  -24.4140  -15.0980 C   0  0  0  0  0  0  0  0  0  0  0  0
   19.6730  -23.6740  -16.0520 O   0  0  0  0  0  0  0  0  0  0  0  0
   19.3300  -25.8620  -13.8310 H   0  0  0  0  0  0  0  0  0  0  0  0
   17.7120  -25.5440  -15.1560 C   0  0  0  0  0  2  0  0  0  0  0  0
   14.7780  -23.1230  -13.0450 C   0  0  0  0  0  0  0  0  0  0  0  0
   15.8850  -23.6550  -12.3530 C   0  0  0  0  0  3  0  0  0  0  0  0
   16.8350  -24.4380  -13.0310 C   0  0  0  0  0  3  0  0  0  0  0  0
   14.6330  -23.3770  -14.4260 C   0  0  0  0  0  3  0  0  0  0  0  0
   15.5860  -24.1600  -15.1050 C   0  0  0  0  0  3  0  0  0  0  0  0
   16.6910  -24.6940  -14.4120 C   0  0  0  0  0  0  0  0  0  0  0  0
   11.5640  -23.2440  -13.3080 C   0  0  0  0  0  1  0  0  0  0  0  0
   12.4180  -22.3780  -12.4030 C   0  0  0  0  0  0  0  0  0  0  0  0
   11.7760  -21.5480  -11.5070 N   0  0  0  0  0  0  0  0  0  0  0  0
   12.6100  -20.9060  -10.4980 C   0  0  0  0  0  2  0  0  0  0  0  0
   14.2920  -21.1950  -11.1090 S   0  0  0  0  0  0  0  0  0  0  0  0
   13.7540  -22.3720  -12.2970 C   0  0  0  0  0  0  0  0  0  0  0  0
   10.7670  -21.5260  -11.3960 H   0  0  0  0  0  0  0  0  0  0  0  0
   23.0590  -23.5040  -11.9330 O   0  0  0  0  0  0  0  0  0  0  0  0
   23.1990  -24.3500  -12.3480 H   0  0  0  0  0  0  0  0  0  0  0  0
   23.7270  -22.7090  -18.2470 C   0  0  1  0  0  0  0  0  0  0  0  0
   24.9710  -21.9270  -18.7250 C   0  0  0  0  0  1  0  0  0  0  0  0
   23.3220  -23.7030  -19.3670 C   0  0  0  0  0  1  0  0  0  0  0  0
   22.5800  -21.6890  -18.0810 C   0  0  0  0  0  1  0  0  0  0  0  0
  1  2  2  0
  3  5  1  0
  4  7  1  0
  5  7  1  0
  5  1  1  0
  6 10  1  0
  6  3  1  0
  6  4  1  0
  7 37  1  0
  8 12  1  0
  8  9  2  0
 10  8  1  0
 11 10  1  0
 13 12  1  0
 13 14  1  0
 13 15  1  0
 14 28  2  0
 15 20  1  0
 16 17  1  0
 16 15  2  0
 17 18  2  0
 18 20  1  0
 18 19  1  0
 20 21  1  0
 21 22  1  0
 22 23  1  0
 23 24  1  0
 25 26  1  0
 25 23  2  0
 27 21  2  0
 27 25  1  0
 28 29  1  0
 28 27  1  0
 29 30  1  0
 30 31  2  0
 32 33  1  0
 32 31  1  0
 34 32  2  0
 35 34  1  0
 35 29  2  0
 37 39  1  0
 37 36  1  0
 37 38  1  0
 40  1  1  0
 41 47  1  0
 41 42  1  0
 42 43  2  0
 44 42  1  0
 44 40  1  0
 45 41  1  0
 46 44  1  0
 47 53  1  0
 48 56  1  0
 48 49  1  0
 49 50  1  0
 50 73  1  0
 51 50  1  0
 52 48  1  0
 52 51  1  0
 53 52  1  0
 54 53  2  0
 55 58  1  0
 56 55  1  0
 57 56  2  0
 59 55  1  0
 59 65  1  0
 60 61  1  0
 60 71  1  0
 62 61  2  0
 63 60  2  0
 64 63  1  0
 64 65  2  0
 65 62  1  0
 66 67  1  0
 67 71  2  0
 67 68  1  0
 68 72  1  0
 68 69  1  0
 70 69  1  0
 71 70  1  0
 74 73  1  0
 75 78  1  1
 75 47  1  0
 76 75  1  0
 77 75  1  0
M  ISO  4   8 100  10 100  42 101  44 101
M  END
>  <TORSDO>  (137) 
F 16

>  <SCORE>  (137) 
-9.228

>  <name>  (137) 
136

>  <ligand_id>  (137) 
136

>  <original_smiles>  (137) 
[H]OC1([H])C([H])([H])N(C(=O)C([H])(N([H])C(=O)N([H])C([H])([H])C(=O)C2([H])C([H])([H])C([H])(N([H])C(=O)C([H])([H])C3([H])N=C(c4c([H])c([H])c(Cl)c([H])c4[H])c4c(sc(C([H])([H])[H])c4C([H])([H])[H])-n4c(C([H])([H])[H])nnc43)C([H])([H])C2([H])[N+]([H])([H])C([H])([H])[H])C(C([H])([H])[H])(C([H])([H])[H])C([H])([H])[H])C([H])(C(=O)N([H])C([H])([H])c2c([H])c([H])c(C3=C(C([H])([H])[H])N([H])C([H])([H])S3)c([H])c2[H])C1([H])[H]

>  <smiles>  (137) 
[H]OC1([H])C([H])([H])N(C(=O)C([H])(N([H])C(=O)N([H])C([H])([H])C(=O)C2([H])C([H])([H])C([H])(N([H])C(=O)C([H])([H])C3([H])N=C(c4c([H])c([H])c(Cl)c([H])c4[H])c4c(sc(C([H])([H])[H])c4C([H])([H])[H])-n4c(C([H])([H])[H])nnc43)C([H])([H])C2([H])[N+]([H])([H])C([H])([H])[H])C(C([H])([H])[H])(C([H])([H])[H])C([H])([H])[H])C([H])(C(=O)N([H])C([H])([H])c2c([H])c([H])c(C3=C(C([H])([H])[H])N([H])C([H])([H])S3)c([H])c2[H])C1([H])[H]

$$$$
137:0:0
     RDKit          3D

 83 89  0  0  1  0  0  0  0  0999 V2000
   25.8310  -24.8320  -15.6850 N   0  0  0  0  0  0  0  0  0  0  0  0
   26.8350  -25.4180  -15.0220 C   0  0  0  0  0  0  0  0  0  0  0  0
   27.3380  -24.9160  -14.0170 O   0  0  0  0  0  0  0  0  0  0  0  0
   26.8120  -27.3870  -16.5300 C   0  0  0  0  0  0  0  0  0  0  0  0
   27.2920  -26.5710  -15.5610 N   0  0  0  0  0  0  0  0  0  0  0  0
   25.4930  -27.3650  -16.7800 N   0  0  0  0  0  0  0  0  0  0  0  0
   27.5590  -28.1410  -17.1490 O   0  0  0  0  0  0  0  0  0  0  0  0
   25.5300  -25.2600  -16.5460 H   0  0  0  0  0  0  0  0  0  0  0  0
   28.1990  -26.8470  -15.2260 H   0  0  0  0  0  0  0  0  0  0  0  0
   24.7610  -26.9110  -16.2430 H   0  0  0  0  0  0  0  0  0  0  0  0
   23.7050  -28.2730  -18.0530 C   0  0  0  0  0  0  0  0  0  0  0  0
   23.3340  -28.5630  -19.3020 N   0  0  0  0  0  0  0  0  0  0  0  0
   24.9890  -27.9330  -17.9650 N   0  0  0  0  0  0  0  0  0  0  0  0
   22.9400  -28.2960  -17.0900 O   0  0  0  0  0  0  0  0  0  0  0  0
   24.0130  -28.3710  -20.0220 H   0  0  0  0  0  0  0  0  0  0  0  0
   25.6780  -27.9360  -18.7040 H   0  0  0  0  0  0  0  0  0  0  0  0
   21.9570  -28.8450  -19.7190 C   0  0  0  0  0  2  0  0  0  0  0  0
   20.6330  -30.6520  -16.7850 C   0  0  0  0  0  0  0  0  0  0  0  0
   20.7570  -30.1880  -15.6500 O   0  0  0  0  0  0  0  0  0  0  0  0
   21.3830  -30.1300  -19.0850 C   0  0  0  0  0  0  0  0  0  0  0  0
   21.4050  -31.3120  -19.6190 N   0  0  0  0  0  0  0  0  0  0  0  0
   20.8520  -29.8310  -17.8300 N   0  0  0  0  0  0  0  0  0  0  0  0
   20.9460  -28.8650  -17.5490 H   0  0  0  0  0  0  0  0  0  0  0  0
   22.0690  -31.4030  -20.8550 N   0  0  0  0  0  4  0  0  0  0  0  0
   22.6350  -30.5800  -20.9810 H   0  0  0  0  0  0  0  0  0  0  0  0
   22.6510  -32.2230  -20.8400 H   0  0  0  0  0  0  0  0  0  0  0  0
   21.3890  -31.4940  -21.5920 H   0  0  0  0  0  0  0  0  0  0  0  0
   20.2090  -32.1330  -16.9300 C   0  0  0  0  0  2  0  0  0  0  0  0
   20.8350  -33.0560  -15.8520 C   0  0  0  0  0  3  0  0  0  0  0  0
   22.2110  -32.6350  -15.5710 N   0  0  0  0  0  0  0  0  0  0  0  0
   20.8100  -34.5310  -16.2070 C   0  0  0  0  0  0  0  0  0  0  0  0
   20.4840  -35.0670  -17.3890 N   0  0  0  0  0  0  0  0  0  0  0  0
   20.6880  -36.4260  -17.2540 N   0  0  0  0  0  0  0  0  0  0  0  0
   21.1330  -36.6050  -16.0050 C   0  0  0  0  0  0  0  0  0  0  0  0
   21.5410  -37.9370  -15.4560 C   0  0  0  0  0  1  0  0  0  0  0  0
   21.2010  -35.4520  -15.3050 N   0  0  0  0  0  0  0  0  0  0  0  0
   21.5730  -35.2070  -13.9680 C   0  0  0  0  0  0  0  0  0  0  0  0
   21.1390  -36.1980  -12.6110 S   0  0  0  0  0  0  0  0  0  0  0  0
   21.8840  -35.0820  -11.5040 C   0  0  0  0  0  0  0  0  0  0  0  0
   21.8600  -35.3740  -10.0360 C   0  0  0  0  0  1  0  0  0  0  0  0
   22.4190  -33.9890  -12.1500 C   0  0  0  0  0  0  0  0  0  0  0  0
   23.0580  -32.8450  -11.4060 C   0  0  0  0  0  1  0  0  0  0  0  0
   22.2730  -34.0840  -13.5800 C   0  0  0  0  0  0  0  0  0  0  0  0
   22.8340  -33.0750  -14.5410 C   0  0  0  0  0  0  0  0  0  0  0  0
   24.2040  -32.5700  -14.3110 C   0  0  0  0  0  0  0  0  0  0  0  0
   25.2000  -33.4320  -13.8030 C   0  0  0  0  0  3  0  0  0  0  0  0
   26.4970  -32.9410  -13.5550 C   0  0  0  0  0  3  0  0  0  0  0  0
   26.8000  -31.5930  -13.8190 C   0  0  0  0  0  0  0  0  0  0  0  0
   28.3870  -30.9920  -13.5150 Cl  0  0  0  0  0  0  0  0  0  0  0  0
   25.8100  -30.7350  -14.3310 C   0  0  0  0  0  3  0  0  0  0  0  0
   24.5160  -31.2190  -14.5830 C   0  0  0  0  0  3  0  0  0  0  0  0
   25.0010  -23.7050  -15.2800 C   0  0  0  0  0  3  0  0  0  0  0  0
   21.9330  -23.9800  -12.8410 C   0  0  0  0  0  3  0  0  0  0  0  0
   21.4820  -22.7460  -12.0420 C   0  0  0  0  0  2  0  0  0  0  0  0
   22.7460  -21.9350  -11.8640 C   0  0  0  0  0  3  0  0  0  0  0  0
   23.5980  -22.2530  -13.0930 C   0  0  0  0  0  2  0  0  0  0  0  0
   23.1160  -23.5420  -13.6070 N   0  0  0  0  0  0  0  0  0  0  0  0
   23.7560  -24.2820  -14.5480 C   0  0  0  0  0  0  0  0  0  0  0  0
   23.4030  -25.4380  -14.8160 O   0  0  0  0  0  0  0  0  0  0  0  0
   19.9610  -25.3970  -13.0780 N   0  0  0  0  0  0  0  0  0  0  0  0
   20.7510  -24.5010  -13.6790 C   0  0  0  0  0  0  0  0  0  0  0  0
   20.5300  -24.0550  -14.8070 O   0  0  0  0  0  0  0  0  0  0  0  0
   20.2250  -25.7210  -12.1580 H   0  0  0  0  0  0  0  0  0  0  0  0
   18.6840  -25.8730  -13.5980 C   0  0  0  0  0  2  0  0  0  0  0  0
   15.3550  -23.2370  -12.6340 C   0  0  0  0  0  0  0  0  0  0  0  0
   16.4060  -23.4190  -11.7100 C   0  0  0  0  0  3  0  0  0  0  0  0
   17.4840  -24.2660  -12.0200 C   0  0  0  0  0  3  0  0  0  0  0  0
   15.3970  -23.9120  -13.8720 C   0  0  0  0  0  3  0  0  0  0  0  0
   16.4780  -24.7590  -14.1820 C   0  0  0  0  0  3  0  0  0  0  0  0
   17.5270  -24.9430  -13.2580 C   0  0  0  0  0  0  0  0  0  0  0  0
   12.2200  -23.7150  -13.2360 C   0  0  0  0  0  1  0  0  0  0  0  0
   12.8920  -22.5630  -12.5140 C   0  0  0  0  0  0  0  0  0  0  0  0
   12.0870  -21.5820  -11.9720 N   0  0  0  0  0  0  0  0  0  0  0  0
   12.7360  -20.6180  -11.0930 C   0  0  0  0  0  2  0  0  0  0  0  0
   14.5030  -20.9100  -11.3930 S   0  0  0  0  0  0  0  0  0  0  0  0
   14.1980  -22.4090  -12.2560 C   0  0  0  0  0  0  0  0  0  0  0  0
   11.0740  -21.6250  -11.9900 H   0  0  0  0  0  0  0  0  0  0  0  0
   23.4410  -22.3550  -10.7030 O   0  0  0  0  0  0  0  0  0  0  0  0
   23.6510  -23.2790  -10.7910 H   0  0  0  0  0  0  0  0  0  0  0  0
   24.6460  -22.9060  -16.5910 C   0  0  1  0  0  0  0  0  0  0  0  0
   25.9100  -22.1470  -17.0660 C   0  0  0  0  0  1  0  0  0  0  0  0
   24.1600  -23.8080  -17.7540 C   0  0  0  0  0  1  0  0  0  0  0  0
   23.5600  -21.8430  -16.3270 C   0  0  0  0  0  1  0  0  0  0  0  0
  1 52  1  0
  1  2  1  0
  2  3  2  0
  4  5  1  0
  5  9  1  0
  5  2  1  0
  6  4  1  0
  6 10  1  0
  7  4  2  0
  8  1  1  0
 11 13  1  0
 11 14  2  0
 12 11  1  0
 13  6  1  0
 15 12  1  0
 16 13  1  0
 17 12  1  0
 17 20  1  0
 18 19  2  0
 20 22  1  0
 21 20  2  0
 22 23  1  0
 22 18  1  0
 24 26  1  0
 24 21  1  0
 25 24  1  0
 27 24  1  0
 28 18  1  0
 29 28  1  0
 29 30  1  0
 30 44  2  0
 31 29  1  0
 31 36  1  0
 32 33  1  0
 32 31  2  0
 33 34  2  0
 34 35  1  0
 34 36  1  0
 36 37  1  0
 37 43  2  0
 37 38  1  0
 38 39  1  0
 39 40  1  0
 41 39  2  0
 41 42  1  0
 43 41  1  0
 44 45  1  0
 44 43  1  0
 45 46  1  0
 46 47  2  0
 48 47  1  0
 48 49  1  0
 50 48  2  0
 51 50  1  0
 51 45  2  0
 52 58  1  0
 53 61  1  0
 53 54  1  0
 54 55  1  0
 55 78  1  0
 56 55  1  0
 57 56  1  0
 57 53  1  0
 58 57  1  0
 59 58  2  0
 60 63  1  0
 61 60  1  0
 62 61  2  0
 64 70  1  0
 64 60  1  0
 65 76  1  0
 65 66  1  0
 67 66  2  0
 68 65  2  0
 69 68  1  0
 69 70  2  0
 70 67  1  0
 71 72  1  0
 72 76  2  0
 72 73  1  0
 73 74  1  0
 75 74  1  0
 76 75  1  0
 77 73  1  0
 79 78  1  0
 80 83  1  1
 80 52  1  0
 81 80  1  0
 82 80  1  0
M  ISO  4   2 101   5 101  18 100  22 100
M  END
>  <TORSDO>  (138) 
F 15

>  <SCORE>  (138) 
-14.111

>  <name>  (138) 
137

>  <ligand_id>  (138) 
137

>  <original_smiles>  (138) 
[H]OC1([H])C([H])([H])N(C(=O)C([H])(N([H])C(=O)N([H])C(=O)N([H])N([H])C(=O)N([H])C([H])([H])C(=N[N+]([H])([H])[H])N([H])C(=O)C([H])([H])C2([H])N=C(c3c([H])c([H])c(Cl)c([H])c3[H])c3c(sc(C([H])([H])[H])c3C([H])([H])[H])-n3c(C([H])([H])[H])nnc32)C(C([H])([H])[H])(C([H])([H])[H])C([H])([H])[H])C([H])(C(=O)N([H])C([H])([H])c2c([H])c([H])c(C3=C(C([H])([H])[H])N([H])C([H])([H])S3)c([H])c2[H])C1([H])[H]

>  <smiles>  (138) 
[H]OC1([H])C([H])([H])N(C(=O)C([H])(N([H])C(=O)N([H])C(=O)N([H])N([H])C(=O)N([H])C([H])([H])C(=N[N+]([H])([H])[H])N([H])C(=O)C([H])([H])C2([H])N=C(c3c([H])c([H])c(Cl)c([H])c3[H])c3c(sc(C([H])([H])[H])c3C([H])([H])[H])-n3c(C([H])([H])[H])nnc32)C(C([H])([H])[H])(C([H])([H])[H])C([H])([H])[H])C([H])(C(=O)N([H])C([H])([H])c2c([H])c([H])c(C3=C(C([H])([H])[H])N([H])C([H])([H])S3)c([H])c2[H])C1([H])[H]

$$$$
138:0:0
     RDKit          3D

 75 81  0  0  1  0  0  0  0  0999 V2000
   25.7800  -24.8440  -15.7090 N   0  0  0  0  0  0  0  0  0  0  0  0
   26.3330  -25.6220  -14.7990 C   0  0  0  0  0  0  0  0  0  0  0  0
   27.0170  -25.1180  -13.8800 O   0  0  0  0  0  0  0  0  0  0  0  0
   25.8670  -26.9390  -14.9300 N   0  0  0  0  0  0  0  0  0  0  0  0
   25.3580  -25.3780  -16.4490 H   0  0  0  0  0  0  0  0  0  0  0  0
   26.0930  -27.6380  -14.2370 H   0  0  0  0  0  0  0  0  0  0  0  0
   23.8210  -28.3530  -15.8570 C   0  0  0  0  0  0  0  0  0  0  0  0
   24.9550  -27.5390  -16.0250 N   0  0  0  0  0  0  0  0  0  0  0  0
   23.4130  -28.5660  -14.7140 O   0  0  0  0  0  0  0  0  0  0  0  0
   25.3490  -27.3880  -16.9440 H   0  0  0  0  0  0  0  0  0  0  0  0
   22.9830  -29.0340  -17.1040 C   0  0  0  0  0  0  0  0  0  0  0  0
   21.2860  -31.2320  -17.0360 C   0  0  0  0  0  0  0  0  0  0  0  0
   20.2990  -30.7760  -16.4670 O   0  0  0  0  0  0  0  0  0  0  0  0
   22.4730  -30.5030  -17.1690 N   0  0  0  0  0  4  0  0  0  0  0  0
   23.2170  -31.1150  -17.4760 H   0  0  0  0  0  0  0  0  0  0  0  0
   21.2280  -32.7620  -17.4310 C   0  0  0  0  0  2  0  0  0  0  0  0
   21.5450  -33.6480  -16.1880 C   0  0  0  0  0  3  0  0  0  0  0  0
   22.8960  -33.2710  -15.8190 N   0  0  0  0  0  0  0  0  0  0  0  0
   21.4850  -35.1780  -16.2630 C   0  0  0  0  0  0  0  0  0  0  0  0
   21.2890  -35.9440  -17.3430 N   0  0  0  0  0  0  0  0  0  0  0  0
   21.4630  -37.2530  -16.9160 N   0  0  0  0  0  0  0  0  0  0  0  0
   21.7610  -37.1780  -15.6140 C   0  0  0  0  0  0  0  0  0  0  0  0
   22.1020  -38.3720  -14.7690 C   0  0  0  0  0  1  0  0  0  0  0  0
   21.7510  -35.9080  -15.1520 N   0  0  0  0  0  0  0  0  0  0  0  0
   21.9700  -35.4120  -13.8460 C   0  0  0  0  0  0  0  0  0  0  0  0
   21.3760  -36.1220  -12.3790 S   0  0  0  0  0  0  0  0  0  0  0  0
   21.9950  -34.7960  -11.4330 C   0  0  0  0  0  0  0  0  0  0  0  0
   21.8000  -34.7900   -9.9510 C   0  0  0  0  0  1  0  0  0  0  0  0
   22.6140  -33.8450  -12.2150 C   0  0  0  0  0  0  0  0  0  0  0  0
   23.1690  -32.5600  -11.6550 C   0  0  0  0  0  1  0  0  0  0  0  0
   22.6450  -34.2380  -13.5980 C   0  0  0  0  0  0  0  0  0  0  0  0
   23.3530  -33.4610  -14.6510 C   0  0  0  0  0  0  0  0  0  0  0  0
   24.6830  -32.8950  -14.3760 C   0  0  0  0  0  0  0  0  0  0  0  0
   25.6560  -33.6460  -13.6940 C   0  0  0  0  0  3  0  0  0  0  0  0
   26.9130  -33.0730  -13.4240 C   0  0  0  0  0  3  0  0  0  0  0  0
   27.1970  -31.7570  -13.8350 C   0  0  0  0  0  0  0  0  0  0  0  0
   28.7310  -31.0560  -13.4910 Cl  0  0  0  0  0  0  0  0  0  0  0  0
   26.2290  -31.0110  -14.5240 C   0  0  0  0  0  3  0  0  0  0  0  0
   24.9780  -31.5880  -14.7950 C   0  0  0  0  0  3  0  0  0  0  0  0
   22.9180  -26.9710  -18.5930 C   0  0  0  0  0  1  0  0  0  0  0  0
   20.9930  -27.3950  -17.0500 C   0  0  0  0  0  1  0  0  0  0  0  0
   21.3530  -28.7540  -19.1350 C   0  0  0  0  0  1  0  0  0  0  0  0
   22.0590  -28.0630  -17.9410 C   0  0  2  0  0  0  0  0  0  0  0  0
   24.9460  -23.6840  -15.3850 C   0  0  0  0  0  3  0  0  0  0  0  0
   21.8920  -24.0160  -12.9070 C   0  0  0  0  0  3  0  0  0  0  0  0
   21.4790  -22.8390  -12.0120 C   0  0  0  0  0  2  0  0  0  0  0  0
   22.7690  -22.0800  -11.7770 C   0  0  0  0  0  3  0  0  0  0  0  0
   23.6070  -22.3190  -13.0340 C   0  0  0  0  0  2  0  0  0  0  0  0
   23.0820  -23.5430  -13.6460 N   0  0  0  0  0  0  0  0  0  0  0  0
   23.6630  -24.2210  -14.6650 C   0  0  0  0  0  0  0  0  0  0  0  0
   23.2190  -25.3120  -15.0280 O   0  0  0  0  0  0  0  0  0  0  0  0
   19.8980  -25.3880  -13.2370 N   0  0  0  0  0  0  0  0  0  0  0  0
   20.6930  -24.4540  -13.7690 C   0  0  0  0  0  0  0  0  0  0  0  0
   20.4700  -23.9180  -14.8570 O   0  0  0  0  0  0  0  0  0  0  0  0
   20.1680  -25.7920  -12.3500 H   0  0  0  0  0  0  0  0  0  0  0  0
   18.6150  -25.8030  -13.7860 C   0  0  0  0  0  2  0  0  0  0  0  0
   15.3460  -23.1570  -12.6590 C   0  0  0  0  0  0  0  0  0  0  0  0
   16.3960  -23.4130  -11.7520 C   0  0  0  0  0  3  0  0  0  0  0  0
   17.4540  -24.2650  -12.1140 C   0  0  0  0  0  3  0  0  0  0  0  0
   15.3700  -23.7600  -13.9340 C   0  0  0  0  0  3  0  0  0  0  0  0
   16.4310  -24.6120  -14.2960 C   0  0  0  0  0  3  0  0  0  0  0  0
   17.4770  -24.8710  -13.3890 C   0  0  0  0  0  0  0  0  0  0  0  0
   12.1940  -23.5720  -13.2090 C   0  0  0  0  0  1  0  0  0  0  0  0
   12.8960  -22.4540  -12.4640 C   0  0  0  0  0  0  0  0  0  0  0  0
   12.1150  -21.4830  -11.8700 N   0  0  0  0  0  0  0  0  0  0  0  0
   12.7970  -20.5570  -10.9730 C   0  0  0  0  0  2  0  0  0  0  0  0
   14.5500  -20.8610  -11.3210 S   0  0  0  0  0  0  0  0  0  0  0  0
   14.2090  -22.3260  -12.2280 C   0  0  0  0  0  0  0  0  0  0  0  0
   11.1000  -21.5110  -11.8680 H   0  0  0  0  0  0  0  0  0  0  0  0
   23.4540  -22.6070  -10.6530 O   0  0  0  0  0  0  0  0  0  0  0  0
   23.6420  -23.5250  -10.8170 H   0  0  0  0  0  0  0  0  0  0  0  0
   24.6680  -22.9530  -16.7480 C   0  0  1  0  0  0  0  0  0  0  0  0
   25.9700  -22.2830  -17.2380 C   0  0  0  0  0  1  0  0  0  0  0  0
   24.1880  -23.9060  -17.8590 C   0  0  0  0  0  1  0  0  0  0  0  0
   23.5970  -21.8520  -16.6200 C   0  0  0  0  0  1  0  0  0  0  0  0
  1 44  1  0
  1  2  1  0
  2  3  2  0
  4  2  1  0
  4  6  1  0
  5  1  1  0
  7  9  2  0
  8  7  1  0
  8  4  1  0
 10  8  1  0
 11  7  1  0
 12 13  2  0
 14 11  2  0
 14 12  1  0
 15 14  1  0
 16 12  1  0
 17 16  1  0
 17 18  1  0
 18 32  2  0
 19 17  1  0
 19 24  1  0
 20 21  1  0
 20 19  2  0
 21 22  2  0
 22 24  1  0
 22 23  1  0
 24 25  1  0
 25 31  2  0
 25 26  1  0
 26 27  1  0
 27 28  1  0
 29 30  1  0
 29 27  2  0
 31 29  1  0
 32 33  1  0
 32 31  1  0
 33 34  1  0
 34 35  2  0
 36 37  1  0
 36 35  1  0
 38 36  2  0
 39 38  1  0
 39 33  2  0
 43 40  1  6
 42 43  1  0
 43 11  1  0
 43 41  1  0
 44 50  1  0
 45 53  1  0
 45 46  1  0
 46 47  1  0
 47 70  1  0
 48 47  1  0
 49 48  1  0
 49 45  1  0
 50 49  1  0
 51 50  2  0
 52 55  1  0
 53 52  1  0
 54 53  2  0
 56 62  1  0
 56 52  1  0
 57 68  1  0
 57 58  1  0
 59 58  2  0
 60 57  2  0
 61 60  1  0
 61 62  2  0
 62 59  1  0
 63 64  1  0
 64 68  2  0
 64 65  1  0
 65 69  1  0
 65 66  1  0
 67 66  1  0
 68 67  1  0
 71 70  1  0
 72 75  1  1
 72 44  1  0
 73 72  1  0
 74 72  1  0
M  ISO  4   2 101   4 101  12 100  14 100
M  END
>  <TORSDO>  (139) 
F 15

>  <SCORE>  (139) 
-14.404

>  <name>  (139) 
138

>  <ligand_id>  (139) 
138

>  <original_smiles>  (139) 
[H]OC1([H])C([H])([H])N(C(=O)C([H])(N([H])C(=O)N([H])N([H])C(=O)C([H])(N([H])C(=O)C([H])([H])C2([H])N=C(c3c([H])c([H])c(Cl)c([H])c3[H])c3c(sc(C([H])([H])[H])c3C([H])([H])[H])-n3c(C([H])([H])[H])nnc32)C(C([H])([H])[H])(C([H])([H])[H])C([H])([H])[H])C(C([H])([H])[H])(C([H])([H])[H])C([H])([H])[H])C([H])(C(=O)N([H])C([H])([H])c2c([H])c([H])c(C3=C(C([H])([H])[H])N([H])C([H])([H])S3)c([H])c2[H])C1([H])[H]

>  <smiles>  (139) 
[H]OC1([H])C([H])([H])N(C(=O)C([H])(N([H])C(=O)N([H])N([H])C(=O)C([H])(N([H])C(=O)C([H])([H])C2([H])N=C(c3c([H])c([H])c(Cl)c([H])c3[H])c3c(sc(C([H])([H])[H])c3C([H])([H])[H])-n3c(C([H])([H])[H])nnc32)C(C([H])([H])[H])(C([H])([H])[H])C([H])([H])[H])C(C([H])([H])[H])(C([H])([H])[H])C([H])([H])[H])C([H])(C(=O)N([H])C([H])([H])c2c([H])c([H])c(C3=C(C([H])([H])[H])N([H])C([H])([H])S3)c([H])c2[H])C1([H])[H]

$$$$
139:0:0
     RDKit          3D

 82 88  0  0  1  0  0  0  0  0999 V2000
   24.3630  -28.9090  -14.8980 C   0  0  0  0  0  3  0  0  0  0  0  0
   23.1730  -29.2070  -15.3270 N   0  0  0  0  0  2  0  0  0  0  0  0
   25.1400  -27.8510  -15.3940 N   0  0  0  0  0  0  0  0  0  0  0  0
   24.5910  -26.9870  -15.3360 H   0  0  0  0  0  0  0  0  0  0  0  0
   26.0250  -25.5030  -15.9800 N   0  0  0  0  0  0  0  0  0  0  0  0
   26.7900  -26.1710  -15.1090 C   0  0  0  0  0  0  0  0  0  0  0  0
   27.5380  -25.6280  -14.2990 O   0  0  0  0  0  0  0  0  0  0  0  0
   26.4650  -27.4760  -15.0550 N   0  0  0  0  0  0  0  0  0  0  0  0
   25.7090  -26.0270  -16.7800 H   0  0  0  0  0  0  0  0  0  0  0  0
   26.9210  -28.0740  -14.3740 H   0  0  0  0  0  0  0  0  0  0  0  0
   25.2240  -24.3190  -15.6520 C   0  0  0  0  0  3  0  0  0  0  0  0
   22.0500  -24.4550  -13.3100 C   0  0  0  0  0  3  0  0  0  0  0  0
   21.6790  -23.2300  -12.4610 C   0  0  0  0  0  2  0  0  0  0  0  0
   23.0010  -22.5380  -12.1990 C   0  0  0  0  0  3  0  0  0  0  0  0
   23.8660  -22.8640  -13.4150 C   0  0  0  0  0  2  0  0  0  0  0  0
   23.2930  -24.0730  -14.0150 N   0  0  0  0  0  0  0  0  0  0  0  0
   23.8890  -24.7960  -14.9930 C   0  0  0  0  0  0  0  0  0  0  0  0
   23.4240  -25.8770  -15.3760 O   0  0  0  0  0  0  0  0  0  0  0  0
   20.0190  -25.7540  -13.6980 N   0  0  0  0  0  0  0  0  0  0  0  0
   20.8550  -24.8370  -14.1990 C   0  0  0  0  0  0  0  0  0  0  0  0
   20.6720  -24.2780  -15.2830 O   0  0  0  0  0  0  0  0  0  0  0  0
   20.2520  -26.1700  -12.8080 H   0  0  0  0  0  0  0  0  0  0  0  0
   18.7310  -26.1180  -14.2740 C   0  0  0  0  0  2  0  0  0  0  0  0
   15.4840  -23.5240  -12.9800 C   0  0  0  0  0  0  0  0  0  0  0  0
   16.5190  -23.8630  -12.0850 C   0  0  0  0  0  3  0  0  0  0  0  0
   17.5710  -24.6990  -12.5010 C   0  0  0  0  0  3  0  0  0  0  0  0
   15.5140  -24.0260  -14.2980 C   0  0  0  0  0  3  0  0  0  0  0  0
   16.5670  -24.8620  -14.7140 C   0  0  0  0  0  3  0  0  0  0  0  0
   17.6010  -25.2030  -13.8190 C   0  0  0  0  0  0  0  0  0  0  0  0
   12.3380  -23.8200  -13.6340 C   0  0  0  0  0  1  0  0  0  0  0  0
   13.0430  -22.7920  -12.7720 C   0  0  0  0  0  0  0  0  0  0  0  0
   12.2680  -21.8640  -12.1070 N   0  0  0  0  0  0  0  0  0  0  0  0
   12.9460  -21.0410  -11.1130 C   0  0  0  0  0  2  0  0  0  0  0  0
   14.7010  -21.3470  -11.4500 S   0  0  0  0  0  0  0  0  0  0  0  0
   14.3530  -22.7140  -12.4970 C   0  0  0  0  0  0  0  0  0  0  0  0
   11.2520  -21.8720  -12.1280 H   0  0  0  0  0  0  0  0  0  0  0  0
   23.6170  -23.0730  -11.0390 O   0  0  0  0  0  0  0  0  0  0  0  0
   23.7420  -24.0080  -11.1660 H   0  0  0  0  0  0  0  0  0  0  0  0
   24.9920  -23.5110  -16.9750 C   0  0  1  0  0  0  0  0  0  0  0  0
   26.3490  -22.9450  -17.4500 C   0  0  0  0  0  1  0  0  0  0  0  0
   24.3970  -24.3600  -18.1270 C   0  0  0  0  0  1  0  0  0  0  0  0
   24.0540  -22.3090  -16.7390 C   0  0  0  0  0  1  0  0  0  0  0  0
   22.7150  -28.4010  -16.3940 N   0  0  0  0  0  4  0  0  0  0  0  0
   21.8140  -28.0160  -16.1500 H   0  0  0  0  0  0  0  0  0  0  0  0
   23.3860  -27.6560  -16.5070 H   0  0  0  0  0  0  0  0  0  0  0  0
   22.6200  -29.0570  -17.6860 N   0  0  0  0  0  0  0  0  0  0  0  0
   22.9950  -28.3770  -18.3470 H   0  0  0  0  0  0  0  0  0  0  0  0
   21.3530  -29.5190  -18.1640 N   0  0  0  0  0  0  0  0  0  0  0  0
   20.6380  -29.3430  -17.4560 H   0  0  0  0  0  0  0  0  0  0  0  0
   20.7110  -31.7260  -17.6220 C   0  0  0  0  0  0  0  0  0  0  0  0
   20.0900  -31.3170  -16.6360 O   0  0  0  0  0  0  0  0  0  0  0  0
   21.2680  -30.8740  -18.4910 N   0  0  0  0  0  0  0  0  0  0  0  0
   21.7920  -31.2190  -19.2880 H   0  0  0  0  0  0  0  0  0  0  0  0
   21.0250  -33.2190  -17.7810 C   0  0  0  0  0  2  0  0  0  0  0  0
   21.4780  -33.8410  -16.4320 C   0  0  0  0  0  3  0  0  0  0  0  0
   22.8780  -33.4890  -16.1780 N   0  0  0  0  0  0  0  0  0  0  0  0
   21.3110  -35.3460  -16.3440 C   0  0  0  0  0  0  0  0  0  0  0  0
   20.9790  -36.1750  -17.3410 N   0  0  0  0  0  0  0  0  0  0  0  0
   21.0350  -37.4470  -16.8030 N   0  0  0  0  0  0  0  0  0  0  0  0
   21.4080  -37.2880  -15.5290 C   0  0  0  0  0  0  0  0  0  0  0  0
   21.6510  -38.4330  -14.5930 C   0  0  0  0  0  1  0  0  0  0  0  0
   21.5670  -35.9910  -15.1880 N   0  0  0  0  0  0  0  0  0  0  0  0
   21.9080  -35.3980  -13.9550 C   0  0  0  0  0  0  0  0  0  0  0  0
   21.3210  -35.9030  -12.4030 S   0  0  0  0  0  0  0  0  0  0  0  0
   22.1350  -34.5800  -11.6160 C   0  0  0  0  0  0  0  0  0  0  0  0
   22.0210  -34.4280  -10.1320 C   0  0  0  0  0  1  0  0  0  0  0  0
   22.8080  -33.7770  -12.5130 C   0  0  0  0  0  0  0  0  0  0  0  0
   23.5330  -32.5250  -12.0920 C   0  0  0  0  0  1  0  0  0  0  0  0
   22.7080  -34.2800  -13.8590 C   0  0  0  0  0  0  0  0  0  0  0  0
   23.4150  -33.6610  -15.0280 C   0  0  0  0  0  0  0  0  0  0  0  0
   24.8270  -33.2480  -14.8620 C   0  0  0  0  0  0  0  0  0  0  0  0
   25.6380  -33.8470  -13.8760 C   0  0  0  0  0  3  0  0  0  0  0  0
   26.9700  -33.4230  -13.7010 C   0  0  0  0  0  3  0  0  0  0  0  0
   27.4970  -32.4030  -14.5150 C   0  0  0  0  0  0  0  0  0  0  0  0
   29.1180  -31.8630  -14.2970 Cl  0  0  0  0  0  0  0  0  0  0  0  0
   26.7050  -31.8340  -15.5230 C   0  0  0  0  0  3  0  0  0  0  0  0
   25.3730  -32.2540  -15.6960 C   0  0  0  0  0  3  0  0  0  0  0  0
   24.8820  -29.7560  -13.7960 N   0  0  0  0  0  0  0  0  0  0  0  0
   26.0930  -29.9150  -13.5640 N   0  0  0  0  0  0  0  0  0  0  0  0
   26.3840  -30.7020  -12.4960 N   0  0  0  0  0  0  0  0  0  0  0  0
   27.3530  -30.9790  -12.3500 H   0  0  0  0  0  0  0  0  0  0  0  0
   25.6250  -31.2140  -12.0500 H   0  0  0  0  0  0  0  0  0  0  0  0
  1  2  1  0
  1 78  1  0
  3  4  1  0
  3  8  1  0
  3  1  1  0
  5 11  1  0
  5  6  1  0
  6  8  1  0
  6  7  2  0
  8 10  1  0
  9  5  1  0
 11 17  1  0
 12 20  1  0
 12 13  1  0
 13 14  1  0
 14 37  1  0
 15 14  1  0
 16 15  1  0
 16 12  1  0
 17 16  1  0
 18 17  2  0
 19 22  1  0
 20 19  1  0
 21 20  2  0
 23 29  1  0
 23 19  1  0
 24 35  1  0
 24 25  1  0
 26 25  2  0
 27 24  2  0
 28 27  1  0
 28 29  2  0
 29 26  1  0
 30 31  1  0
 31 35  2  0
 31 32  1  0
 32 33  1  0
 34 33  1  0
 35 34  1  0
 36 32  1  0
 38 37  1  0
 39 42  1  1
 39 11  1  0
 40 39  1  0
 41 39  1  0
 43 44  1  0
 43  2  1  0
 45 43  1  0
 46 43  1  0
 47 46  1  0
 48 46  1  0
 48 49  1  0
 50 51  2  0
 52 48  1  0
 52 50  1  0
 53 52  1  0
 54 50  1  0
 55 54  1  0
 55 57  1  0
 55 56  1  0
 56 70  2  0
 57 62  1  0
 58 59  1  0
 58 57  2  0
 59 60  2  0
 60 62  1  0
 60 61  1  0
 62 63  1  0
 63 69  2  0
 63 64  1  0
 64 65  1  0
 65 66  1  0
 67 68  1  0
 67 65  2  0
 69 67  1  0
 70 71  1  0
 70 69  1  0
 71 72  1  0
 72 73  2  0
 74 75  1  0
 74 73  1  0
 76 74  2  0
 77 76  1  0
 77 71  2  0
 78 79  2  0
 79 80  1  0
 80 81  1  0
 80 82  1  0
M  ISO  4   6 101   8 101  50 100  52 100
M  END
>  <TORSDO>  (140) 
F 18

>  <SCORE>  (140) 
-8.669

>  <name>  (140) 
139

>  <ligand_id>  (140) 
139

>  <original_smiles>  (140) 
[H]OC1([H])C([H])([H])N(C(=O)C([H])(N([H])C(=O)N([H])N([H])C(N=NN([H])[H])=N[N+]([H])([H])N([H])N([H])N([H])C(=O)C([H])([H])C2([H])N=C(c3c([H])c([H])c(Cl)c([H])c3[H])c3c(sc(C([H])([H])[H])c3C([H])([H])[H])-n3c(C([H])([H])[H])nnc32)C(C([H])([H])[H])(C([H])([H])[H])C([H])([H])[H])C([H])(C(=O)N([H])C([H])([H])c2c([H])c([H])c(C3=C(C([H])([H])[H])N([H])C([H])([H])S3)c([H])c2[H])C1([H])[H]

>  <smiles>  (140) 
[H]OC1([H])C([H])([H])N(C(=O)C([H])(N([H])C(=O)N([H])N([H])C(N=NN([H])[H])=N[N+]([H])([H])N([H])N([H])N([H])C(=O)C([H])([H])C2([H])N=C(c3c([H])c([H])c(Cl)c([H])c3[H])c3c(sc(C([H])([H])[H])c3C([H])([H])[H])-n3c(C([H])([H])[H])nnc32)C(C([H])([H])[H])(C([H])([H])[H])C([H])([H])[H])C([H])(C(=O)N([H])C([H])([H])c2c([H])c([H])c(C3=C(C([H])([H])[H])N([H])C([H])([H])S3)c([H])c2[H])C1([H])[H]

$$$$
140:0:0
     RDKit          3D

 79 85  0  0  1  0  0  0  0  0999 V2000
   25.7570  -24.5830  -15.4390 N   0  0  0  0  0  0  0  0  0  0  0  0
   26.7940  -25.0130  -14.7360 C   0  0  0  0  0  0  0  0  0  0  0  0
   27.4870  -24.3480  -13.9630 O   0  0  0  0  0  0  0  0  0  0  0  0
   25.8610  -27.1990  -14.9830 C   0  0  0  0  0  0  0  0  0  0  0  0
   26.9650  -26.3980  -14.9780 N   0  0  0  0  0  0  0  0  0  0  0  0
   25.0440  -27.2360  -13.9100 N   0  0  0  0  0  4  0  0  0  0  0  0
   25.4370  -25.1580  -16.2020 H   0  0  0  0  0  0  0  0  0  0  0  0
   27.8300  -26.8860  -14.8010 H   0  0  0  0  0  0  0  0  0  0  0  0
   24.5730  -28.0880  -13.6680 H   0  0  0  0  0  0  0  0  0  0  0  0
   24.4430  -26.4200  -13.7820 H   0  0  0  0  0  0  0  0  0  0  0  0
   25.4960  -28.0450  -16.2250 C   0  0  0  0  0  0  0  0  0  0  0  0
   24.2040  -28.4230  -16.3170 N   0  0  0  0  0  0  0  0  0  0  0  0
   26.3620  -28.2870  -17.0660 O   0  0  0  0  0  0  0  0  0  0  0  0
   23.5440  -28.0860  -15.6350 H   0  0  0  0  0  0  0  0  0  0  0  0
   23.5770  -29.1550  -17.4270 C   0  0  0  0  0  2  0  0  0  0  0  0
   23.5890  -30.6830  -17.2280 C   0  0  0  0  0  0  0  0  0  0  0  0
   22.4550  -31.4060  -17.2950 N   0  0  0  0  0  0  0  0  0  0  0  0
   24.6660  -31.2430  -17.0370 O   0  0  0  0  0  0  0  0  0  0  0  0
   22.4620  -32.4020  -17.1250 H   0  0  0  0  0  0  0  0  0  0  0  0
   20.1820  -31.6270  -16.5560 C   0  0  0  0  0  0  0  0  0  0  0  0
   19.3280  -31.1280  -15.8230 O   0  0  0  0  0  0  0  0  0  0  0  0
   21.1600  -30.8620  -17.0770 N   0  0  0  0  0  0  0  0  0  0  0  0
   21.1880  -29.8600  -16.9450 H   0  0  0  0  0  0  0  0  0  0  0  0
   20.2180  -33.1560  -16.7510 C   0  0  0  0  0  2  0  0  0  0  0  0
   20.8160  -33.8750  -15.5160 C   0  0  0  0  0  3  0  0  0  0  0  0
   22.1120  -33.2740  -15.1940 N   0  0  0  0  0  0  0  0  0  0  0  0
   20.9770  -35.3770  -15.6740 C   0  0  0  0  0  0  0  0  0  0  0  0
   20.8120  -36.0870  -16.7960 N   0  0  0  0  0  0  0  0  0  0  0  0
   21.1570  -37.3860  -16.4710 N   0  0  0  0  0  0  0  0  0  0  0  0
   21.5170  -37.3550  -15.1830 C   0  0  0  0  0  0  0  0  0  0  0  0
   22.0300  -38.5510  -14.4410 C   0  0  0  0  0  1  0  0  0  0  0  0
   21.3970  -36.1260  -14.6350 N   0  0  0  0  0  0  0  0  0  0  0  0
   21.6310  -35.6770  -13.3190 C   0  0  0  0  0  0  0  0  0  0  0  0
   21.2100  -36.5440  -11.8770 S   0  0  0  0  0  0  0  0  0  0  0  0
   21.7300  -35.2160  -10.8770 C   0  0  0  0  0  0  0  0  0  0  0  0
   21.6210  -35.3300   -9.3890 C   0  0  0  0  0  1  0  0  0  0  0  0
   22.1890  -34.1520  -11.6230 C   0  0  0  0  0  0  0  0  0  0  0  0
   22.6350  -32.8560  -10.9950 C   0  0  0  0  0  1  0  0  0  0  0  0
   22.1690  -34.4410  -13.0350 C   0  0  0  0  0  0  0  0  0  0  0  0
   22.6940  -33.5020  -14.0780 C   0  0  0  0  0  0  0  0  0  0  0  0
   23.9760  -32.8100  -13.8280 C   0  0  0  0  0  0  0  0  0  0  0  0
   25.0920  -33.5430  -13.3660 C   0  0  0  0  0  3  0  0  0  0  0  0
   26.3080  -32.8880  -13.0990 C   0  0  0  0  0  3  0  0  0  0  0  0
   26.4150  -31.5020  -13.2910 C   0  0  0  0  0  0  0  0  0  0  0  0
   27.8950  -30.6820  -12.9660 Cl  0  0  0  0  0  0  0  0  0  0  0  0
   25.3100  -30.7730  -13.7530 C   0  0  0  0  0  3  0  0  0  0  0  0
   24.0890  -31.4190  -14.0300 C   0  0  0  0  0  3  0  0  0  0  0  0
   24.8630  -23.4760  -15.1520 C   0  0  0  0  0  3  0  0  0  0  0  0
   21.7700  -23.8010  -12.7390 C   0  0  0  0  0  3  0  0  0  0  0  0
   21.2870  -22.5700  -11.9560 C   0  0  0  0  0  2  0  0  0  0  0  0
   22.5360  -21.7330  -11.7650 C   0  0  0  0  0  3  0  0  0  0  0  0
   23.4060  -22.0380  -12.9840 C   0  0  0  0  0  2  0  0  0  0  0  0
   22.9520  -23.3350  -13.4930 N   0  0  0  0  0  0  0  0  0  0  0  0
   23.6160  -24.0640  -14.4200 C   0  0  0  0  0  0  0  0  0  0  0  0
   23.3030  -25.2410  -14.6570 O   0  0  0  0  0  0  0  0  0  0  0  0
   19.8370  -25.2700  -12.9910 N   0  0  0  0  0  0  0  0  0  0  0  0
   20.6090  -24.3530  -13.5850 C   0  0  0  0  0  0  0  0  0  0  0  0
   20.3930  -23.9210  -14.7190 O   0  0  0  0  0  0  0  0  0  0  0  0
   20.0940  -25.5800  -12.0640 H   0  0  0  0  0  0  0  0  0  0  0  0
   18.5770  -25.7760  -13.5230 C   0  0  0  0  0  2  0  0  0  0  0  0
   15.1820  -23.2090  -12.6140 C   0  0  0  0  0  0  0  0  0  0  0  0
   16.2060  -23.3930  -11.6620 C   0  0  0  0  0  3  0  0  0  0  0  0
   17.3050  -24.2190  -11.9530 C   0  0  0  0  0  3  0  0  0  0  0  0
   15.2710  -23.8590  -13.8630 C   0  0  0  0  0  3  0  0  0  0  0  0
   16.3740  -24.6860  -14.1540 C   0  0  0  0  0  3  0  0  0  0  0  0
   17.3960  -24.8710  -13.2010 C   0  0  0  0  0  0  0  0  0  0  0  0
   12.0760  -23.7050  -13.3400 C   0  0  0  0  0  1  0  0  0  0  0  0
   12.7080  -22.5650  -12.5660 C   0  0  0  0  0  0  0  0  0  0  0  0
   11.8720  -21.6090  -12.0260 N   0  0  0  0  0  0  0  0  0  0  0  0
   12.4790  -20.6600  -11.1000 C   0  0  0  0  0  2  0  0  0  0  0  0
   14.2560  -20.9240  -11.3430 S   0  0  0  0  0  0  0  0  0  0  0  0
   14.0030  -22.4020  -12.2560 C   0  0  0  0  0  0  0  0  0  0  0  0
   10.8590  -21.6610  -12.0820 H   0  0  0  0  0  0  0  0  0  0  0  0
   23.2260  -22.1370  -10.5920 O   0  0  0  0  0  0  0  0  0  0  0  0
   23.4410  -23.0620  -10.6680 H   0  0  0  0  0  0  0  0  0  0  0  0
   24.5270  -22.8200  -16.5370 C   0  0  1  0  0  0  0  0  0  0  0  0
   25.8160  -22.1790  -17.1060 C   0  0  0  0  0  1  0  0  0  0  0  0
   23.9930  -23.8270  -17.5910 C   0  0  0  0  0  1  0  0  0  0  0  0
   23.4870  -21.6920  -16.3860 C   0  0  0  0  0  1  0  0  0  0  0  0
  1 48  1  0
  1  2  1  0
  2  3  2  0
  4  5  1  0
  4  6  2  0
  5  8  1  0
  5  2  1  0
  6 10  1  0
  6  9  1  0
  7  1  1  0
 11  4  1  0
 12 11  1  0
 12 14  1  0
 13 11  2  0
 15 16  1  0
 15 12  1  0
 16 18  2  0
 17 16  1  0
 17 19  1  0
 17 22  1  0
 20 21  2  0
 22 23  1  0
 22 20  1  0
 24 20  1  0
 25 24  1  0
 25 26  1  0
 26 40  2  0
 27 25  1  0
 27 32  1  0
 28 29  1  0
 28 27  2  0
 29 30  2  0
 30 32  1  0
 30 31  1  0
 32 33  1  0
 33 39  2  0
 33 34  1  0
 34 35  1  0
 35 36  1  0
 37 38  1  0
 37 35  2  0
 39 37  1  0
 40 41  1  0
 40 39  1  0
 41 42  1  0
 42 43  2  0
 44 43  1  0
 44 45  1  0
 46 44  2  0
 47 41  2  0
 47 46  1  0
 48 54  1  0
 49 57  1  0
 49 50  1  0
 50 51  1  0
 51 74  1  0
 52 51  1  0
 53 52  1  0
 53 49  1  0
 54 53  1  0
 55 54  2  0
 56 59  1  0
 57 56  1  0
 58 57  2  0
 60 66  1  0
 60 56  1  0
 61 72  1  0
 61 62  1  0
 63 62  2  0
 64 61  2  0
 65 64  1  0
 65 66  2  0
 66 63  1  0
 67 68  1  0
 68 72  2  0
 68 69  1  0
 69 70  1  0
 71 70  1  0
 72 71  1  0
 73 69  1  0
 75 74  1  0
 76 79  1  1
 76 48  1  0
 77 76  1  0
 78 76  1  0
M  ISO  4   2 101   5 101  20 100  22 100
M  END
>  <TORSDO>  (141) 
F 15

>  <SCORE>  (141) 
-7.473

>  <name>  (141) 
140

>  <ligand_id>  (141) 
140

>  <original_smiles>  (141) 
[H]OC1([H])C([H])([H])N(C(=O)C([H])(N([H])C(=O)N([H])C(C(=O)N([H])C([H])([H])C(=O)N([H])N([H])C(=O)C([H])([H])C2([H])N=C(c3c([H])c([H])c(Cl)c([H])c3[H])c3c(sc(C([H])([H])[H])c3C([H])([H])[H])-n3c(C([H])([H])[H])nnc32)=[N+]([H])[H])C(C([H])([H])[H])(C([H])([H])[H])C([H])([H])[H])C([H])(C(=O)N([H])C([H])([H])c2c([H])c([H])c(C3=C(C([H])([H])[H])N([H])C([H])([H])S3)c([H])c2[H])C1([H])[H]

>  <smiles>  (141) 
[H]OC1([H])C([H])([H])N(C(=O)C([H])(N([H])C(=O)N([H])C(C(=O)N([H])C([H])([H])C(=O)N([H])N([H])C(=O)C([H])([H])C2([H])N=C(c3c([H])c([H])c(Cl)c([H])c3[H])c3c(sc(C([H])([H])[H])c3C([H])([H])[H])-n3c(C([H])([H])[H])nnc32)=[N+]([H])[H])C(C([H])([H])[H])(C([H])([H])[H])C([H])([H])[H])C([H])(C(=O)N([H])C([H])([H])c2c([H])c([H])c(C3=C(C([H])([H])[H])N([H])C([H])([H])S3)c([H])c2[H])C1([H])[H]

$$$$
141:0:0
     RDKit          3D

 79 85  0  0  1  0  0  0  0  0999 V2000
   27.0860  -27.2740  -15.8450 N   0  0  0  0  0  0  0  0  0  0  0  0
   26.0840  -27.0960  -16.5610 N   0  0  0  0  0  0  0  0  0  0  0  0
   25.9710  -24.6970  -15.2700 N   0  0  0  0  0  0  0  0  0  0  0  0
   26.9380  -25.1640  -14.4770 C   0  0  0  0  0  0  0  0  0  0  0  0
   27.3160  -24.5560  -13.4730 O   0  0  0  0  0  0  0  0  0  0  0  0
   27.4800  -26.3530  -14.8200 N   0  0  0  0  0  0  0  0  0  0  0  0
   25.7240  -25.2930  -16.0460 H   0  0  0  0  0  0  0  0  0  0  0  0
   28.2410  -26.6900  -14.2460 H   0  0  0  0  0  0  0  0  0  0  0  0
   25.0600  -23.5800  -15.0260 C   0  0  0  0  0  3  0  0  0  0  0  0
   21.8800  -23.8680  -12.7300 C   0  0  0  0  0  3  0  0  0  0  0  0
   21.3820  -22.6350  -11.9580 C   0  0  0  0  0  2  0  0  0  0  0  0
   22.6310  -21.8130  -11.7210 C   0  0  0  0  0  3  0  0  0  0  0  0
   23.5420  -22.1280  -12.9070 C   0  0  0  0  0  2  0  0  0  0  0  0
   23.0970  -23.4220  -13.4390 N   0  0  0  0  0  0  0  0  0  0  0  0
   23.7840  -24.1620  -14.3490 C   0  0  0  0  0  0  0  0  0  0  0  0
   23.4430  -25.3170  -14.6320 O   0  0  0  0  0  0  0  0  0  0  0  0
   19.9610  -25.3340  -13.0670 N   0  0  0  0  0  0  0  0  0  0  0  0
   20.7430  -24.4010  -13.6180 C   0  0  0  0  0  0  0  0  0  0  0  0
   20.5500  -23.9340  -14.7430 O   0  0  0  0  0  0  0  0  0  0  0  0
   20.2020  -25.6710  -12.1450 H   0  0  0  0  0  0  0  0  0  0  0  0
   18.7180  -25.8340  -13.6410 C   0  0  0  0  0  2  0  0  0  0  0  0
   15.2790  -23.3240  -12.7270 C   0  0  0  0  0  0  0  0  0  0  0  0
   16.3030  -23.4980  -11.7730 C   0  0  0  0  0  3  0  0  0  0  0  0
   17.4160  -24.3040  -12.0650 C   0  0  0  0  0  3  0  0  0  0  0  0
   15.3840  -23.9640  -13.9810 C   0  0  0  0  0  3  0  0  0  0  0  0
   16.5000  -24.7710  -14.2730 C   0  0  0  0  0  3  0  0  0  0  0  0
   17.5210  -24.9470  -13.3180 C   0  0  0  0  0  0  0  0  0  0  0  0
   12.1780  -23.9030  -13.4070 C   0  0  0  0  0  1  0  0  0  0  0  0
   12.7910  -22.7370  -12.6580 C   0  0  0  0  0  0  0  0  0  0  0  0
   11.9400  -21.7920  -12.1250 N   0  0  0  0  0  0  0  0  0  0  0  0
   12.5350  -20.8090  -11.2260 C   0  0  0  0  0  2  0  0  0  0  0  0
   14.3160  -21.0400  -11.4830 S   0  0  0  0  0  0  0  0  0  0  0  0
   14.0860  -22.5400  -12.3680 C   0  0  0  0  0  0  0  0  0  0  0  0
   10.9280  -21.8690  -12.1660 H   0  0  0  0  0  0  0  0  0  0  0  0
   23.2720  -22.2230  -10.5230 O   0  0  0  0  0  0  0  0  0  0  0  0
   23.4980  -23.1440  -10.6030 H   0  0  0  0  0  0  0  0  0  0  0  0
   24.7750  -22.8770  -16.4050 C   0  0  1  0  0  0  0  0  0  0  0  0
   26.0880  -22.2420  -16.9190 C   0  0  0  0  0  1  0  0  0  0  0  0
   24.2540  -23.8450  -17.4950 C   0  0  0  0  0  1  0  0  0  0  0  0
   23.7510  -21.7310  -16.2560 C   0  0  0  0  0  1  0  0  0  0  0  0
   25.8240  -28.0380  -17.5000 N   0  0  0  0  0  0  0  0  0  0  0  0
   26.5610  -28.7230  -17.6690 H   0  0  0  0  0  0  0  0  0  0  0  0
   24.9480  -27.7230  -18.5580 N   0  0  0  0  0  0  0  0  0  0  0  0
   25.1790  -26.7910  -18.8970 H   0  0  0  0  0  0  0  0  0  0  0  0
   23.5630  -27.7410  -18.0340 C   0  0  0  0  0  2  0  0  0  0  0  0
   22.6490  -28.8390  -18.4930 C   0  0  0  0  0  0  0  0  0  0  0  0
   22.9030  -29.4210  -19.6830 N   0  0  0  0  0  4  0  0  0  0  0  0
   21.6140  -29.2100  -17.7100 N   0  0  0  0  0  0  0  0  0  0  0  0
   23.7340  -29.1250  -20.1780 H   0  0  0  0  0  0  0  0  0  0  0  0
   22.2630  -30.0190  -20.1800 H   0  0  0  0  0  0  0  0  0  0  0  0
   21.4400  -28.7970  -16.8010 H   0  0  0  0  0  0  0  0  0  0  0  0
   20.4950  -31.0560  -16.9560 C   0  0  0  0  0  0  0  0  0  0  0  0
   20.2250  -30.5460  -15.8620 O   0  0  0  0  0  0  0  0  0  0  0  0
   20.8680  -30.3370  -18.0200 N   0  0  0  0  0  0  0  0  0  0  0  0
   21.2500  -30.7460  -18.8580 H   0  0  0  0  0  0  0  0  0  0  0  0
   20.4990  -32.5780  -17.1350 C   0  0  0  0  0  2  0  0  0  0  0  0
   21.1130  -33.3430  -15.9360 C   0  0  0  0  0  3  0  0  0  0  0  0
   22.4570  -32.8350  -15.6480 N   0  0  0  0  0  0  0  0  0  0  0  0
   21.1690  -34.8460  -16.1500 C   0  0  0  0  0  0  0  0  0  0  0  0
   20.9110  -35.5030  -17.2870 N   0  0  0  0  0  0  0  0  0  0  0  0
   21.1700  -36.8330  -17.0180 N   0  0  0  0  0  0  0  0  0  0  0  0
   21.5750  -36.8750  -15.7450 C   0  0  0  0  0  0  0  0  0  0  0  0
   22.0170  -38.1330  -15.0620 C   0  0  0  0  0  1  0  0  0  0  0  0
   21.5680  -35.6590  -15.1540 N   0  0  0  0  0  0  0  0  0  0  0  0
   21.8810  -35.2760  -13.8350 C   0  0  0  0  0  0  0  0  0  0  0  0
   21.4420  -36.1550  -12.4060 S   0  0  0  0  0  0  0  0  0  0  0  0
   22.0980  -34.9080  -11.3850 C   0  0  0  0  0  0  0  0  0  0  0  0
   22.0310  -35.0660   -9.8980 C   0  0  0  0  0  1  0  0  0  0  0  0
   22.6110  -33.8560  -12.1140 C   0  0  0  0  0  0  0  0  0  0  0  0
   23.1750  -32.6200  -11.4610 C   0  0  0  0  0  1  0  0  0  0  0  0
   22.5190  -34.0910  -13.5340 C   0  0  0  0  0  0  0  0  0  0  0  0
   23.0690  -33.1500  -14.5660 C   0  0  0  0  0  0  0  0  0  0  0  0
   24.4100  -32.5630  -14.3430 C   0  0  0  0  0  0  0  0  0  0  0  0
   25.4600  -33.3690  -13.8470 C   0  0  0  0  0  3  0  0  0  0  0  0
   26.7270  -32.8050  -13.6060 C   0  0  0  0  0  3  0  0  0  0  0  0
   26.9500  -31.4400  -13.8600 C   0  0  0  0  0  0  0  0  0  0  0  0
   28.5000  -30.7480  -13.5600 Cl  0  0  0  0  0  0  0  0  0  0  0  0
   25.9080  -30.6360  -14.3580 C   0  0  0  0  0  3  0  0  0  0  0  0
   24.6410  -31.1960  -14.6060 C   0  0  0  0  0  3  0  0  0  0  0  0
  1  6  1  0
  2  1  2  0
  3  9  1  0
  3  4  1  0
  4  5  2  0
  6  4  1  0
  6  8  1  0
  7  3  1  0
  9 15  1  0
 10 18  1  0
 10 11  1  0
 11 12  1  0
 12 35  1  0
 13 12  1  0
 14 13  1  0
 14 10  1  0
 15 14  1  0
 16 15  2  0
 17 20  1  0
 18 17  1  0
 19 18  2  0
 21 27  1  0
 21 17  1  0
 22 33  1  0
 22 23  1  0
 24 23  2  0
 25 22  2  0
 26 25  1  0
 26 27  2  0
 27 24  1  0
 28 29  1  0
 29 33  2  0
 29 30  1  0
 30 31  1  0
 32 31  1  0
 33 32  1  0
 34 30  1  0
 36 35  1  0
 37 40  1  1
 37  9  1  0
 38 37  1  0
 39 37  1  0
 41  2  1  0
 42 41  1  0
 43 45  1  0
 43 41  1  0
 44 43  1  0
 46 45  1  0
 46 48  1  0
 47 46  2  0
 48 51  1  0
 49 47  1  0
 50 47  1  0
 52 53  2  0
 54 48  1  0
 54 52  1  0
 55 54  1  0
 56 52  1  0
 57 56  1  0
 57 58  1  0
 58 72  2  0
 59 57  1  0
 59 64  1  0
 60 61  1  0
 60 59  2  0
 61 62  2  0
 62 64  1  0
 62 63  1  0
 64 65  1  0
 65 71  2  0
 65 66  1  0
 66 67  1  0
 67 68  1  0
 69 70  1  0
 69 67  2  0
 71 69  1  0
 72 73  1  0
 72 71  1  0
 73 74  1  0
 74 75  2  0
 76 75  1  0
 76 77  1  0
 78 76  2  0
 79 78  1  0
 79 73  2  0
M  ISO  4   4 101   6 101  52 100  54 100
M  END
>  <TORSDO>  (142) 
F 17

>  <SCORE>  (142) 
-12.515

>  <name>  (142) 
141

>  <ligand_id>  (142) 
141

>  <original_smiles>  (142) 
[H]OC1([H])C([H])([H])N(C(=O)C([H])(N([H])C(=O)N([H])N=NN([H])N([H])C([H])([H])C(N([H])[H])=[N+]([H])N([H])C(=O)C([H])([H])C2([H])N=C(c3c([H])c([H])c(Cl)c([H])c3[H])c3c(sc(C([H])([H])[H])c3C([H])([H])[H])-n3c(C([H])([H])[H])nnc32)C(C([H])([H])[H])(C([H])([H])[H])C([H])([H])[H])C([H])(C(=O)N([H])C([H])([H])c2c([H])c([H])c(C3=C(C([H])([H])[H])N([H])C([H])([H])S3)c([H])c2[H])C1([H])[H]

>  <smiles>  (142) 
[H]OC1([H])C([H])([H])N(C(=O)C([H])(N([H])C(=O)N([H])N=NN([H])N([H])C([H])([H])C(N([H])[H])=[N+]([H])N([H])C(=O)C([H])([H])C2([H])N=C(c3c([H])c([H])c(Cl)c([H])c3[H])c3c(sc(C([H])([H])[H])c3C([H])([H])[H])-n3c(C([H])([H])[H])nnc32)C(C([H])([H])[H])(C([H])([H])[H])C([H])([H])[H])C([H])(C(=O)N([H])C([H])([H])c2c([H])c([H])c(C3=C(C([H])([H])[H])N([H])C([H])([H])S3)c([H])c2[H])C1([H])[H]

$$$$
142:0:0
     RDKit          3D

 79 86  0  0  1  0  0  0  0  0999 V2000
   24.9060  -27.7140  -14.7450 C   0  0  0  0  0  3  0  0  0  0  0  0
   23.7270  -28.1190  -15.0620 N   0  0  0  0  0  0  0  0  0  0  0  0
   25.8510  -27.1050  -15.5760 N   0  0  0  0  0  0  0  0  0  0  0  0
   23.4520  -27.8720  -16.0040 H   0  0  0  0  0  0  0  0  0  0  0  0
   25.6700  -24.4560  -15.4850 N   0  0  0  0  0  0  0  0  0  0  0  0
   26.5910  -24.9560  -14.6680 C   0  0  0  0  0  0  0  0  0  0  0  0
   27.1020  -24.3260  -13.7370 O   0  0  0  0  0  0  0  0  0  0  0  0
   26.8160  -26.2570  -14.9360 N   0  0  0  0  0  0  0  0  0  0  0  0
   25.3680  -25.0640  -16.2250 H   0  0  0  0  0  0  0  0  0  0  0  0
   27.4890  -26.7450  -14.3590 H   0  0  0  0  0  0  0  0  0  0  0  0
   24.7420  -23.3660  -15.2430 C   0  0  0  0  0  3  0  0  0  0  0  0
   21.6810  -23.7550  -12.7980 C   0  0  0  0  0  3  0  0  0  0  0  0
   21.1950  -22.5400  -11.9920 C   0  0  0  0  0  2  0  0  0  0  0  0
   22.4380  -21.6940  -11.8050 C   0  0  0  0  0  3  0  0  0  0  0  0
   23.3000  -21.9740  -13.0340 C   0  0  0  0  0  2  0  0  0  0  0  0
   22.8530  -23.2680  -13.5550 N   0  0  0  0  0  0  0  0  0  0  0  0
   23.5030  -23.9690  -14.5130 C   0  0  0  0  0  0  0  0  0  0  0  0
   23.1500  -25.1090  -14.8110 O   0  0  0  0  0  0  0  0  0  0  0  0
   19.7600  -25.2410  -13.0400 N   0  0  0  0  0  0  0  0  0  0  0  0
   20.5170  -24.3130  -13.6360 C   0  0  0  0  0  0  0  0  0  0  0  0
   20.2790  -23.8700  -14.7610 O   0  0  0  0  0  0  0  0  0  0  0  0
   20.0370  -25.5600  -12.1220 H   0  0  0  0  0  0  0  0  0  0  0  0
   18.5010  -25.7590  -13.5620 C   0  0  0  0  0  2  0  0  0  0  0  0
   15.0890  -23.2260  -12.6150 C   0  0  0  0  0  0  0  0  0  0  0  0
   16.1270  -23.3970  -11.6760 C   0  0  0  0  0  3  0  0  0  0  0  0
   17.2310  -24.2130  -11.9800 C   0  0  0  0  0  3  0  0  0  0  0  0
   15.1700  -23.8760  -13.8650 C   0  0  0  0  0  3  0  0  0  0  0  0
   16.2770  -24.6920  -14.1680 C   0  0  0  0  0  3  0  0  0  0  0  0
   17.3130  -24.8650  -13.2280 C   0  0  0  0  0  0  0  0  0  0  0  0
   11.9780  -23.7750  -13.2700 C   0  0  0  0  0  1  0  0  0  0  0  0
   12.6080  -22.6160  -12.5240 C   0  0  0  0  0  0  0  0  0  0  0  0
   11.7710  -21.6630  -11.9800 N   0  0  0  0  0  0  0  0  0  0  0  0
   12.3810  -20.6950  -11.0790 C   0  0  0  0  0  2  0  0  0  0  0  0
   14.1580  -20.9360  -11.3560 S   0  0  0  0  0  0  0  0  0  0  0  0
   13.9060  -22.4310  -12.2440 C   0  0  0  0  0  0  0  0  0  0  0  0
   10.7580  -21.7320  -12.0130 H   0  0  0  0  0  0  0  0  0  0  0  0
   23.1410  -22.1010  -10.6450 O   0  0  0  0  0  0  0  0  0  0  0  0
   23.3720  -23.0200  -10.7380 H   0  0  0  0  0  0  0  0  0  0  0  0
   24.3970  -22.7600  -16.6510 C   0  0  1  0  0  0  0  0  0  0  0  0
   25.6690  -22.0910  -17.2200 C   0  0  0  0  0  1  0  0  0  0  0  0
   23.9110  -23.8110  -17.6840 C   0  0  0  0  0  1  0  0  0  0  0  0
   23.3130  -21.6680  -16.5430 C   0  0  0  0  0  1  0  0  0  0  0  0
   26.2050  -27.8160  -16.8890 N   0  0  0  0  0  4  0  0  0  0  0  0
   27.0990  -27.4770  -17.2040 H   0  0  0  0  0  0  0  0  0  0  0  0
   26.2980  -28.8040  -16.7130 H   0  0  0  0  0  0  0  0  0  0  0  0
   25.2740  -27.7180  -18.0400 C   0  0  0  0  0  2  0  0  0  0  0  0
   22.7560  -28.5560  -18.0570 C   0  0  0  0  0  3  0  0  0  0  0  0
   24.1650  -28.7540  -17.9710 C   0  0  0  0  0  0  0  0  0  0  0  0
   22.2370  -29.7960  -17.8000 C   0  0  0  0  0  0  0  0  0  0  0  0
   24.4500  -30.0340  -17.7430 N   0  0  0  0  0  0  0  0  0  0  0  0
   23.2230  -30.7110  -17.6270 O   0  0  0  0  0  0  0  0  0  0  0  0
   20.3770  -30.9920  -16.8890 C   0  0  0  0  0  0  0  0  0  0  0  0
   19.8120  -30.6640  -15.8450 O   0  0  0  0  0  0  0  0  0  0  0  0
   20.9100  -30.0310  -17.6620 N   0  0  0  0  0  0  0  0  0  0  0  0
   20.3950  -29.1690  -17.5860 H   0  0  0  0  0  0  0  0  0  0  0  0
   20.5220  -32.4890  -17.2380 C   0  0  0  0  0  2  0  0  0  0  0  0
   20.9830  -33.3470  -16.0290 C   0  0  0  0  0  3  0  0  0  0  0  0
   22.3280  -32.9100  -15.6690 N   0  0  0  0  0  0  0  0  0  0  0  0
   20.9810  -34.8520  -16.2610 C   0  0  0  0  0  0  0  0  0  0  0  0
   20.7170  -35.4850  -17.4110 N   0  0  0  0  0  0  0  0  0  0  0  0
   20.9250  -36.8290  -17.1580 N   0  0  0  0  0  0  0  0  0  0  0  0
   21.3020  -36.9040  -15.8780 C   0  0  0  0  0  0  0  0  0  0  0  0
   21.6910  -38.1870  -15.2070 C   0  0  0  0  0  1  0  0  0  0  0  0
   21.3200  -35.6990  -15.2660 N   0  0  0  0  0  0  0  0  0  0  0  0
   21.6080  -35.3550  -13.9300 C   0  0  0  0  0  0  0  0  0  0  0  0
   21.1130  -36.2510  -12.5270 S   0  0  0  0  0  0  0  0  0  0  0  0
   21.7840  -35.0450  -11.4650 C   0  0  0  0  0  0  0  0  0  0  0  0
   21.6840  -35.2290   -9.9840 C   0  0  0  0  0  1  0  0  0  0  0  0
   22.3430  -33.9960  -12.1600 C   0  0  0  0  0  0  0  0  0  0  0  0
   22.9320  -32.7900  -11.4710 C   0  0  0  0  0  1  0  0  0  0  0  0
   22.2750  -34.2010  -13.5850 C   0  0  0  0  0  0  0  0  0  0  0  0
   22.8890  -33.2670  -14.5790 C   0  0  0  0  0  0  0  0  0  0  0  0
   24.2450  -32.7460  -14.3130 C   0  0  0  0  0  0  0  0  0  0  0  0
   25.2530  -33.6080  -13.8270 C   0  0  0  0  0  3  0  0  0  0  0  0
   26.5390  -33.1110  -13.5430 C   0  0  0  0  0  3  0  0  0  0  0  0
   26.8250  -31.7540  -13.7550 C   0  0  0  0  0  0  0  0  0  0  0  0
   28.3820  -31.0990  -13.4160 Cl  0  0  0  0  0  0  0  0  0  0  0  0
   25.8320  -30.9100  -14.2560 C   0  0  0  0  0  3  0  0  0  0  0  0
   24.5380  -31.3880  -14.5300 C   0  0  0  0  0  3  0  0  0  0  0  0
  2  1  2  0
  3  8  1  0
  3  1  1  0
  4  2  1  0
  5 11  1  0
  5  6  1  0
  6  7  2  0
  8  6  1  0
  8 10  1  0
  9  5  1  0
 11 17  1  0
 12 20  1  0
 12 13  1  0
 13 14  1  0
 14 37  1  0
 15 14  1  0
 16 15  1  0
 16 12  1  0
 17 16  1  0
 18 17  2  0
 19 22  1  0
 20 19  1  0
 21 20  2  0
 23 29  1  0
 23 19  1  0
 24 35  1  0
 24 25  1  0
 26 25  2  0
 27 24  2  0
 28 27  1  0
 28 29  2  0
 29 26  1  0
 30 31  1  0
 31 35  2  0
 31 32  1  0
 32 33  1  0
 34 33  1  0
 35 34  1  0
 36 32  1  0
 38 37  1  0
 39 42  1  1
 39 11  1  0
 40 39  1  0
 41 39  1  0
 43 45  1  0
 43  3  1  0
 44 43  1  0
 46 48  1  0
 46 43  1  0
 47 48  1  0
 47 49  2  0
 48 50  2  0
 49 54  1  0
 49 51  1  0
 50 51  1  0
 52 53  2  0
 54 55  1  0
 54 52  1  0
 56 52  1  0
 57 56  1  0
 57 58  1  0
 58 72  2  0
 59 57  1  0
 59 64  1  0
 60 61  1  0
 60 59  2  0
 61 62  2  0
 62 64  1  0
 62 63  1  0
 64 65  1  0
 65 71  2  0
 65 66  1  0
 66 67  1  0
 67 68  1  0
 69 70  1  0
 69 67  2  0
 71 69  1  0
 72 73  1  0
 72 71  1  0
 73 74  1  0
 74 75  2  0
 76 75  1  0
 76 77  1  0
 78 76  2  0
 79 73  2  0
 79 78  1  0
M  ISO  4   6 101   8 101  52 100  54 100
M  END
>  <TORSDO>  (143) 
F 16

>  <SCORE>  (143) 
-10.727

>  <name>  (143) 
142

>  <ligand_id>  (143) 
142

>  <original_smiles>  (143) 
[H]N=C([H])N(N([H])C(=O)N([H])C([H])(C(=O)N1C([H])([H])C([H])(O[H])C([H])([H])C1([H])C(=O)N([H])C([H])([H])c1c([H])c([H])c(C2=C(C([H])([H])[H])N([H])C([H])([H])S2)c([H])c1[H])C(C([H])([H])[H])(C([H])([H])[H])C([H])([H])[H])[N+]([H])([H])C([H])([H])c1noc(N([H])C(=O)C([H])([H])C2([H])N=C(c3c([H])c([H])c(Cl)c([H])c3[H])c3c(sc(C([H])([H])[H])c3C([H])([H])[H])-n3c(C([H])([H])[H])nnc32)c1[H]

>  <smiles>  (143) 
[H]N=C([H])N(N([H])C(=O)N([H])C([H])(C(=O)N1C([H])([H])C([H])(O[H])C([H])([H])C1([H])C(=O)N([H])C([H])([H])c1c([H])c([H])c(C2=C(C([H])([H])[H])N([H])C([H])([H])S2)c([H])c1[H])C(C([H])([H])[H])(C([H])([H])[H])C([H])([H])[H])[N+]([H])([H])C([H])([H])c1noc(N([H])C(=O)C([H])([H])C2([H])N=C(c3c([H])c([H])c(Cl)c([H])c3[H])c3c(sc(C([H])([H])[H])c3C([H])([H])[H])-n3c(C([H])([H])[H])nnc32)c1[H]

$$$$
143:0:0
     RDKit          3D

 75 82  0  0  1  0  0  0  0  0999 V2000
   25.8530  -24.6530  -15.5090 N   0  0  0  0  0  0  0  0  0  0  0  0
   26.7190  -25.1980  -14.6620 C   0  0  0  0  0  0  0  0  0  0  0  0
   27.3320  -24.5720  -13.7950 O   0  0  0  0  0  0  0  0  0  0  0  0
   26.7970  -26.5210  -14.8450 N   0  0  0  0  0  0  0  0  0  0  0  0
   25.5030  -25.2800  -16.2140 H   0  0  0  0  0  0  0  0  0  0  0  0
   27.5640  -26.9760  -14.3680 H   0  0  0  0  0  0  0  0  0  0  0  0
   24.9490  -23.5450  -15.2270 C   0  0  0  0  0  3  0  0  0  0  0  0
   21.8600  -23.9780  -12.8230 C   0  0  0  0  0  3  0  0  0  0  0  0
   21.4030  -22.8020  -11.9490 C   0  0  0  0  0  2  0  0  0  0  0  0
   22.6670  -22.0070  -11.7010 C   0  0  0  0  0  3  0  0  0  0  0  0
   23.5290  -22.2370  -12.9420 C   0  0  0  0  0  2  0  0  0  0  0  0
   23.0500  -23.4840  -13.5470 N   0  0  0  0  0  0  0  0  0  0  0  0
   23.6790  -24.1480  -14.5460 C   0  0  0  0  0  0  0  0  0  0  0  0
   23.2850  -25.2550  -14.9210 O   0  0  0  0  0  0  0  0  0  0  0  0
   19.8940  -25.3860  -13.1630 N   0  0  0  0  0  0  0  0  0  0  0  0
   20.6860  -24.4500  -13.6980 C   0  0  0  0  0  0  0  0  0  0  0  0
   20.4730  -23.9370  -14.7980 O   0  0  0  0  0  0  0  0  0  0  0  0
   20.1460  -25.7610  -12.2590 H   0  0  0  0  0  0  0  0  0  0  0  0
   18.6280  -25.8330  -13.7280 C   0  0  0  0  0  2  0  0  0  0  0  0
   15.2990  -23.2290  -12.6890 C   0  0  0  0  0  0  0  0  0  0  0  0
   16.3230  -23.4750  -11.7540 C   0  0  0  0  0  3  0  0  0  0  0  0
   17.4010  -24.3140  -12.0870 C   0  0  0  0  0  3  0  0  0  0  0  0
   15.3650  -23.8270  -13.9650 C   0  0  0  0  0  3  0  0  0  0  0  0
   16.4440  -24.6670  -14.2990 C   0  0  0  0  0  3  0  0  0  0  0  0
   17.4690  -24.9160  -13.3630 C   0  0  0  0  0  0  0  0  0  0  0  0
   12.1750  -23.6520  -13.3770 C   0  0  0  0  0  1  0  0  0  0  0  0
   12.8380  -22.5450  -12.5810 C   0  0  0  0  0  0  0  0  0  0  0  0
   12.0270  -21.5920  -12.0020 N   0  0  0  0  0  0  0  0  0  0  0  0
   12.6650  -20.6770  -11.0620 C   0  0  0  0  0  2  0  0  0  0  0  0
   14.4330  -20.9640  -11.3420 S   0  0  0  0  0  0  0  0  0  0  0  0
   14.1380  -22.4130  -12.2900 C   0  0  0  0  0  0  0  0  0  0  0  0
   11.0120  -21.6270  -12.0400 H   0  0  0  0  0  0  0  0  0  0  0  0
   23.3530  -22.5100  -10.5650 O   0  0  0  0  0  0  0  0  0  0  0  0
   23.5580  -23.4270  -10.7190 H   0  0  0  0  0  0  0  0  0  0  0  0
   24.6430  -22.8320  -16.5920 C   0  0  1  0  0  0  0  0  0  0  0  0
   25.9370  -22.1520  -17.0950 C   0  0  0  0  0  1  0  0  0  0  0  0
   24.1540  -23.7900  -17.7080 C   0  0  0  0  0  1  0  0  0  0  0  0
   23.5800  -21.7250  -16.4230 C   0  0  0  0  0  1  0  0  0  0  0  0
   25.6110  -27.3770  -15.0760 C   0  0  0  0  0  2  0  0  0  0  0  0
   25.1270  -27.3960  -16.5650 C   0  0  0  0  0  2  0  0  0  0  0  0
   22.9680  -28.5830  -17.1830 C   0  0  0  0  0  0  0  0  0  0  0  0
   24.3070  -28.5400  -17.0030 N   0  0  0  0  0  0  0  0  0  0  0  0
   22.2160  -27.6980  -16.7790 O   0  0  0  0  0  0  0  0  0  0  0  0
   24.8250  -29.3190  -17.3890 H   0  0  0  0  0  0  0  0  0  0  0  0
   20.4140  -30.8810  -16.9720 C   0  0  0  0  0  0  0  0  0  0  0  0
   20.0550  -30.4880  -15.8580 O   0  0  0  0  0  0  0  0  0  0  0  0
   21.2220  -28.8800  -19.9480 C   0  0  0  0  0  2  0  0  0  0  0  0
   22.5810  -29.4190  -19.5210 C   0  0  0  0  0  2  0  0  0  0  0  0
   20.2230  -29.6380  -19.0750 C   0  0  0  0  0  2  0  0  0  0  0  0
   22.4200  -29.7700  -18.0260 C   0  0  0  0  0  3  0  0  0  0  0  0
   20.9690  -30.0560  -17.8890 N   0  0  0  0  0  0  0  0  0  0  0  0
   20.3670  -32.3840  -17.3100 C   0  0  0  0  0  2  0  0  0  0  0  0
   20.8790  -33.2680  -16.1400 C   0  0  0  0  0  3  0  0  0  0  0  0
   22.2200  -32.8190  -15.7600 N   0  0  0  0  0  0  0  0  0  0  0  0
   20.9090  -34.7600  -16.4330 C   0  0  0  0  0  0  0  0  0  0  0  0
   20.6790  -35.3500  -17.6130 N   0  0  0  0  0  0  0  0  0  0  0  0
   20.9100  -36.6980  -17.4090 N   0  0  0  0  0  0  0  0  0  0  0  0
   21.2710  -36.8170  -16.1270 C   0  0  0  0  0  0  0  0  0  0  0  0
   21.6760  -38.1180  -15.5010 C   0  0  0  0  0  1  0  0  0  0  0  0
   21.2580  -35.6370  -15.4690 N   0  0  0  0  0  0  0  0  0  0  0  0
   21.5270  -35.3380  -14.1180 C   0  0  0  0  0  0  0  0  0  0  0  0
   21.0320  -36.2920  -12.7570 S   0  0  0  0  0  0  0  0  0  0  0  0
   21.6670  -35.1140  -11.6430 C   0  0  0  0  0  0  0  0  0  0  0  0
   21.5500  -35.3550  -10.1730 C   0  0  0  0  0  1  0  0  0  0  0  0
   22.2140  -34.0280  -12.2910 C   0  0  0  0  0  0  0  0  0  0  0  0
   22.7630  -32.8350  -11.5500 C   0  0  0  0  0  1  0  0  0  0  0  0
   22.1690  -34.1840  -13.7220 C   0  0  0  0  0  0  0  0  0  0  0  0
   22.7770  -33.2060  -14.6740 C   0  0  0  0  0  0  0  0  0  0  0  0
   24.1230  -32.6740  -14.3700 C   0  0  0  0  0  0  0  0  0  0  0  0
   25.1290  -33.5200  -13.8540 C   0  0  0  0  0  3  0  0  0  0  0  0
   26.4010  -33.0010  -13.5400 C   0  0  0  0  0  3  0  0  0  0  0  0
   26.6870  -31.6490  -13.7930 C   0  0  0  0  0  0  0  0  0  0  0  0
   28.2280  -30.9790  -13.4140 Cl  0  0  0  0  0  0  0  0  0  0  0  0
   25.7130  -30.8390  -14.3820 C   0  0  0  0  0  3  0  0  0  0  0  0
   24.4130  -31.3200  -14.6090 C   0  0  0  0  0  3  0  0  0  0  0  0
  1  7  1  0
  1  2  1  0
  2  3  2  0
  4  2  1  0
  4  6  1  0
  5  1  1  0
  7 13  1  0
  8 16  1  0
  8  9  1  0
  9 10  1  0
 10 33  1  0
 11 10  1  0
 12 11  1  0
 12  8  1  0
 13 12  1  0
 14 13  2  0
 15 18  1  0
 16 15  1  0
 17 16  2  0
 19 25  1  0
 19 15  1  0
 20 31  1  0
 20 21  1  0
 22 21  2  0
 23 20  2  0
 24 23  1  0
 24 25  2  0
 25 22  1  0
 26 27  1  0
 27 31  2  0
 27 28  1  0
 28 29  1  0
 30 29  1  0
 31 30  1  0
 32 28  1  0
 34 33  1  0
 35 38  1  1
 35  7  1  0
 36 35  1  0
 37 35  1  0
 39  4  1  0
 40 39  1  0
 41 42  1  0
 41 43  2  0
 42 40  1  0
 44 42  1  0
 45 46  2  0
 47 48  1  0
 47 49  1  0
 48 50  1  0
 49 51  1  0
 50 51  1  0
 50 41  1  0
 51 45  1  0
 52 45  1  0
 53 52  1  0
 53 54  1  0
 54 68  2  0
 55 53  1  0
 55 60  1  0
 56 57  1  0
 56 55  2  0
 57 58  2  0
 58 59  1  0
 58 60  1  0
 60 61  1  0
 61 67  2  0
 61 62  1  0
 62 63  1  0
 63 64  1  0
 65 63  2  0
 65 66  1  0
 67 65  1  0
 68 69  1  0
 68 67  1  0
 69 70  1  0
 70 71  2  0
 72 71  1  0
 72 73  1  0
 74 72  2  0
 75 74  1  0
 75 69  2  0
M  ISO  4   2 101   4 101  45 100  51 100
M  END
>  <TORSDO>  (144) 
F 15

>  <SCORE>  (144) 
-13.006

>  <name>  (144) 
143

>  <ligand_id>  (144) 
143

>  <original_smiles>  (144) 
[H]OC1([H])C([H])([H])N(C(=O)C([H])(N([H])C(=O)N([H])C([H])([H])C([H])([H])N([H])C(=O)C2([H])N(C(=O)C([H])([H])C3([H])N=C(c4c([H])c([H])c(Cl)c([H])c4[H])c4c(sc(C([H])([H])[H])c4C([H])([H])[H])-n4c(C([H])([H])[H])nnc43)C([H])([H])C([H])([H])C2([H])[H])C(C([H])([H])[H])(C([H])([H])[H])C([H])([H])[H])C([H])(C(=O)N([H])C([H])([H])c2c([H])c([H])c(C3=C(C([H])([H])[H])N([H])C([H])([H])S3)c([H])c2[H])C1([H])[H]

>  <smiles>  (144) 
[H]OC1([H])C([H])([H])N(C(=O)C([H])(N([H])C(=O)N([H])C([H])([H])C([H])([H])N([H])C(=O)C2([H])N(C(=O)C([H])([H])C3([H])N=C(c4c([H])c([H])c(Cl)c([H])c4[H])c4c(sc(C([H])([H])[H])c4C([H])([H])[H])-n4c(C([H])([H])[H])nnc43)C([H])([H])C([H])([H])C2([H])[H])C(C([H])([H])[H])(C([H])([H])[H])C([H])([H])[H])C([H])(C(=O)N([H])C([H])([H])c2c([H])c([H])c(C3=C(C([H])([H])[H])N([H])C([H])([H])S3)c([H])c2[H])C1([H])[H]

$$$$
144:0:0
     RDKit          3D

 80 86  0  0  1  0  0  0  0  0999 V2000
   24.2770  -28.0290  -15.2930 C   0  0  0  0  0  0  0  0  0  0  0  0
   22.6590  -28.4740  -17.1070 C   0  0  0  0  0  0  0  0  0  0  0  0
   24.4130  -28.1030  -13.9550 N   0  0  0  0  0  4  0  0  0  0  0  0
   22.7360  -27.2420  -17.6340 N   0  0  0  0  0  4  0  0  0  0  0  0
   25.2520  -27.3280  -15.9500 N   0  0  0  0  0  0  0  0  0  0  0  0
   23.2430  -28.7040  -15.9000 N   0  0  0  0  0  0  0  0  0  0  0  0
   21.9260  -29.4050  -17.8010 N   0  0  0  0  0  0  0  0  0  0  0  0
   25.1280  -27.5630  -13.4940 H   0  0  0  0  0  0  0  0  0  0  0  0
   23.7350  -28.5500  -13.3560 H   0  0  0  0  0  0  0  0  0  0  0  0
   22.8180  -26.4430  -17.0060 H   0  0  0  0  0  0  0  0  0  0  0  0
   22.3710  -27.0540  -18.5570 H   0  0  0  0  0  0  0  0  0  0  0  0
   25.2960  -27.3490  -16.9630 H   0  0  0  0  0  0  0  0  0  0  0  0
   22.8070  -29.4470  -15.3820 H   0  0  0  0  0  0  0  0  0  0  0  0
   21.3500  -29.0980  -18.5740 H   0  0  0  0  0  0  0  0  0  0  0  0
   25.6930  -24.7480  -16.2000 N   0  0  0  0  0  0  0  0  0  0  0  0
   26.4280  -25.2990  -15.2400 C   0  0  0  0  0  0  0  0  0  0  0  0
   27.0110  -24.6300  -14.3790 O   0  0  0  0  0  0  0  0  0  0  0  0
   26.3310  -26.6540  -15.2450 N   0  0  0  0  0  0  0  0  0  0  0  0
   25.4430  -25.3570  -16.9570 H   0  0  0  0  0  0  0  0  0  0  0  0
   26.7820  -27.2910  -14.6020 H   0  0  0  0  0  0  0  0  0  0  0  0
   24.7440  -23.6590  -16.0210 C   0  0  0  0  0  3  0  0  0  0  0  0
   21.8740  -23.8830  -13.3310 C   0  0  0  0  0  3  0  0  0  0  0  0
   21.4960  -22.6330  -12.5190 C   0  0  0  0  0  2  0  0  0  0  0  0
   22.7760  -21.8300  -12.4490 C   0  0  0  0  0  3  0  0  0  0  0  0
   23.5310  -22.1740  -13.7330 C   0  0  0  0  0  2  0  0  0  0  0  0
   22.9980  -23.4620  -14.1920 N   0  0  0  0  0  0  0  0  0  0  0  0
   23.5430  -24.2100  -15.1860 C   0  0  0  0  0  0  0  0  0  0  0  0
   23.1370  -25.3550  -15.4410 O   0  0  0  0  0  0  0  0  0  0  0  0
   19.8920  -25.3040  -13.3950 N   0  0  0  0  0  0  0  0  0  0  0  0
   20.6290  -24.4100  -14.0640 C   0  0  0  0  0  0  0  0  0  0  0  0
   20.3200  -23.9780  -15.1750 O   0  0  0  0  0  0  0  0  0  0  0  0
   20.2260  -25.6130  -12.4920 H   0  0  0  0  0  0  0  0  0  0  0  0
   18.5810  -25.7860  -13.8090 C   0  0  0  0  0  2  0  0  0  0  0  0
   15.3370  -23.1340  -12.6330 C   0  0  0  0  0  0  0  0  0  0  0  0
   16.4420  -23.3230  -11.7780 C   0  0  0  0  0  3  0  0  0  0  0  0
   17.4930  -24.1770  -12.1560 C   0  0  0  0  0  3  0  0  0  0  0  0
   15.2980  -23.8030  -13.8740 C   0  0  0  0  0  3  0  0  0  0  0  0
   16.3510  -24.6570  -14.2520 C   0  0  0  0  0  3  0  0  0  0  0  0
   17.4540  -24.8500  -13.3960 C   0  0  0  0  0  0  0  0  0  0  0  0
   12.1680  -23.5830  -13.0470 C   0  0  0  0  0  1  0  0  0  0  0  0
   12.8920  -22.4400  -12.3600 C   0  0  0  0  0  0  0  0  0  0  0  0
   12.1280  -21.4580  -11.7640 N   0  0  0  0  0  0  0  0  0  0  0  0
   12.8380  -20.5030  -10.9200 C   0  0  0  0  0  2  0  0  0  0  0  0
   14.5790  -20.8060  -11.3280 S   0  0  0  0  0  0  0  0  0  0  0  0
   14.2130  -22.2970  -12.1800 C   0  0  0  0  0  0  0  0  0  0  0  0
   11.1140  -21.4920  -11.7190 H   0  0  0  0  0  0  0  0  0  0  0  0
   23.5520  -22.2350  -11.3330 O   0  0  0  0  0  0  0  0  0  0  0  0
   23.7410  -23.1640  -11.4160 H   0  0  0  0  0  0  0  0  0  0  0  0
   24.3460  -23.1740  -17.4590 C   0  0  1  0  0  0  0  0  0  0  0  0
   25.5710  -22.4940  -18.1120 C   0  0  0  0  0  1  0  0  0  0  0  0
   23.8820  -24.3190  -18.3920 C   0  0  0  0  0  1  0  0  0  0  0  0
   23.2150  -22.1270  -17.4100 C   0  0  0  0  0  1  0  0  0  0  0  0
   20.9010  -31.5400  -17.2940 C   0  0  0  0  0  0  0  0  0  0  0  0
   20.0010  -31.0150  -16.6440 O   0  0  0  0  0  0  0  0  0  0  0  0
   21.9990  -30.8220  -17.6520 N   0  0  0  0  0  0  0  0  0  0  0  0
   22.7750  -31.1840  -18.1940 H   0  0  0  0  0  0  0  0  0  0  0  0
   20.9290  -33.0830  -17.4670 C   0  0  0  0  0  2  0  0  0  0  0  0
   21.3650  -33.7510  -16.1310 C   0  0  0  0  0  3  0  0  0  0  0  0
   22.7310  -33.3120  -15.8580 N   0  0  0  0  0  0  0  0  0  0  0  0
   21.3090  -35.2700  -16.0450 C   0  0  0  0  0  0  0  0  0  0  0  0
   21.0610  -36.1310  -17.0400 N   0  0  0  0  0  0  0  0  0  0  0  0
   21.2300  -37.3930  -16.4940 N   0  0  0  0  0  0  0  0  0  0  0  0
   21.5760  -37.1960  -15.2170 C   0  0  0  0  0  0  0  0  0  0  0  0
   21.9200  -38.3090  -14.2730 C   0  0  0  0  0  1  0  0  0  0  0  0
   21.6100  -35.8890  -14.8810 N   0  0  0  0  0  0  0  0  0  0  0  0
   21.8880  -35.2680  -13.6450 C   0  0  0  0  0  0  0  0  0  0  0  0
   21.3360  -35.8150  -12.0940 S   0  0  0  0  0  0  0  0  0  0  0  0
   22.0210  -34.4180  -11.3070 C   0  0  0  0  0  0  0  0  0  0  0  0
   21.8810  -34.2630   -9.8270 C   0  0  0  0  0  1  0  0  0  0  0  0
   22.6270  -33.5650  -12.2030 C   0  0  0  0  0  0  0  0  0  0  0  0
   23.2310  -32.2470  -11.7860 C   0  0  0  0  0  1  0  0  0  0  0  0
   22.5920  -34.0880  -13.5440 C   0  0  0  0  0  0  0  0  0  0  0  0
   23.2600  -33.4250  -14.7030 C   0  0  0  0  0  0  0  0  0  0  0  0
   24.6200  -32.8750  -14.5350 C   0  0  0  0  0  0  0  0  0  0  0  0
   25.5710  -33.5420  -13.7360 C   0  0  0  0  0  3  0  0  0  0  0  0
   26.8520  -32.9870  -13.5600 C   0  0  0  0  0  3  0  0  0  0  0  0
   27.1840  -31.7640  -14.1710 C   0  0  0  0  0  0  0  0  0  0  0  0
   28.7460  -31.0750  -13.9460 Cl  0  0  0  0  0  0  0  0  0  0  0  0
   26.2480  -31.1090  -14.9860 C   0  0  0  0  0  3  0  0  0  0  0  0
   24.9760  -31.6790  -15.1810 C   0  0  0  0  0  3  0  0  0  0  0  0
  1  3  2  0
  2  6  1  0
  3  8  1  0
  3  9  1  0
  4  2  2  0
  4 10  1  0
  5  1  1  0
  5 18  1  0
  6 13  1  0
  6  1  1  0
  7 55  1  0
  7  2  1  0
 11  4  1  0
 12  5  1  0
 14  7  1  0
 15 21  1  0
 15 16  1  0
 16 17  2  0
 18 16  1  0
 18 20  1  0
 19 15  1  0
 21 27  1  0
 22 30  1  0
 22 23  1  0
 23 24  1  0
 24 47  1  0
 25 24  1  0
 26 25  1  0
 26 22  1  0
 27 26  1  0
 28 27  2  0
 29 32  1  0
 30 29  1  0
 31 30  2  0
 33 39  1  0
 33 29  1  0
 34 45  1  0
 34 35  1  0
 36 35  2  0
 37 34  2  0
 38 37  1  0
 38 39  2  0
 39 36  1  0
 40 41  1  0
 41 45  2  0
 41 42  1  0
 42 46  1  0
 42 43  1  0
 44 43  1  0
 45 44  1  0
 48 47  1  0
 49 52  1  1
 49 21  1  0
 50 49  1  0
 51 49  1  0
 53 54  2  0
 55 53  1  0
 56 55  1  0
 57 53  1  0
 58 57  1  0
 58 60  1  0
 58 59  1  0
 59 73  2  0
 60 65  1  0
 61 62  1  0
 61 60  2  0
 62 63  2  0
 63 65  1  0
 63 64  1  0
 65 66  1  0
 66 72  2  0
 66 67  1  0
 67 68  1  0
 68 69  1  0
 70 71  1  0
 70 68  2  0
 72 70  1  0
 73 74  1  0
 73 72  1  0
 74 75  1  0
 75 76  2  0
 77 78  1  0
 77 76  1  0
 79 77  2  0
 80 79  1  0
 80 74  2  0
M  ISO  4  16 101  18 101  53 100  55 100
M  END
>  <TORSDO>  (145) 
F 13

>  <SCORE>  (145) 
-11.434

>  <name>  (145) 
144

>  <ligand_id>  (145) 
144

>  <original_smiles>  (145) 
[H]OC1([H])C([H])([H])N(C(=O)C([H])(N([H])C(=O)N([H])N([H])C(N([H])C(N([H])[H])=[N+]([H])N([H])C(=O)C([H])([H])C2([H])N=C(c3c([H])c([H])c(Cl)c([H])c3[H])c3c(sc(C([H])([H])[H])c3C([H])([H])[H])-n3c(C([H])([H])[H])nnc32)=[N+]([H])[H])C(C([H])([H])[H])(C([H])([H])[H])C([H])([H])[H])C([H])(C(=O)N([H])C([H])([H])c2c([H])c([H])c(C3=C(C([H])([H])[H])N([H])C([H])([H])S3)c([H])c2[H])C1([H])[H]

>  <smiles>  (145) 
[H]OC1([H])C([H])([H])N(C(=O)C([H])(N([H])C(=O)N([H])N([H])C(N([H])C(N([H])[H])=[N+]([H])N([H])C(=O)C([H])([H])C2([H])N=C(c3c([H])c([H])c(Cl)c([H])c3[H])c3c(sc(C([H])([H])[H])c3C([H])([H])[H])-n3c(C([H])([H])[H])nnc32)=[N+]([H])[H])C(C([H])([H])[H])(C([H])([H])[H])C([H])([H])[H])C([H])(C(=O)N([H])C([H])([H])c2c([H])c([H])c(C3=C(C([H])([H])[H])N([H])C([H])([H])S3)c([H])c2[H])C1([H])[H]

$$$$
145:0:0
     RDKit          3D

 74 80  0  0  1  0  0  0  0  0999 V2000
   25.7970  -24.6220  -15.4280 N   0  0  0  0  0  0  0  0  0  0  0  0
   26.6760  -25.3280  -14.7310 C   0  0  0  0  0  0  0  0  0  0  0  0
   27.2030  -24.8630  -13.7040 O   0  0  0  0  0  0  0  0  0  0  0  0
   26.2960  -27.1530  -16.4010 C   0  0  0  0  0  0  0  0  0  0  0  0
   26.8420  -26.5910  -15.2590 N   0  0  0  0  0  0  0  0  0  0  0  0
   25.6500  -26.5210  -17.2390 O   0  0  0  0  0  0  0  0  0  0  0  0
   25.4880  -25.1020  -16.2690 H   0  0  0  0  0  0  0  0  0  0  0  0
   27.4360  -27.2000  -14.7170 H   0  0  0  0  0  0  0  0  0  0  0  0
   24.9260  -23.5200  -15.0940 C   0  0  0  0  0  3  0  0  0  0  0  0
   21.7930  -23.7900  -12.7310 C   0  0  0  0  0  3  0  0  0  0  0  0
   21.3040  -22.5400  -11.9820 C   0  0  0  0  0  2  0  0  0  0  0  0
   22.5540  -21.7080  -11.7830 C   0  0  0  0  0  3  0  0  0  0  0  0
   23.4460  -22.0460  -12.9770 C   0  0  0  0  0  2  0  0  0  0  0  0
   22.9950  -23.3520  -13.4710 N   0  0  0  0  0  0  0  0  0  0  0  0
   23.6710  -24.1060  -14.3740 C   0  0  0  0  0  0  0  0  0  0  0  0
   23.3390  -25.2730  -14.6130 O   0  0  0  0  0  0  0  0  0  0  0  0
   19.8610  -25.2540  -12.9950 N   0  0  0  0  0  0  0  0  0  0  0  0
   20.6460  -24.3490  -13.5890 C   0  0  0  0  0  0  0  0  0  0  0  0
   20.4440  -23.9250  -14.7290 O   0  0  0  0  0  0  0  0  0  0  0  0
   20.1090  -25.5580  -12.0640 H   0  0  0  0  0  0  0  0  0  0  0  0
   18.6100  -25.7670  -13.5390 C   0  0  0  0  0  2  0  0  0  0  0  0
   15.1860  -23.2350  -12.6340 C   0  0  0  0  0  0  0  0  0  0  0  0
   16.2090  -23.4110  -11.6790 C   0  0  0  0  0  3  0  0  0  0  0  0
   17.3180  -24.2250  -11.9690 C   0  0  0  0  0  3  0  0  0  0  0  0
   15.2870  -23.8790  -13.8850 C   0  0  0  0  0  3  0  0  0  0  0  0
   16.3980  -24.6940  -14.1750 C   0  0  0  0  0  3  0  0  0  0  0  0
   17.4190  -24.8730  -13.2190 C   0  0  0  0  0  0  0  0  0  0  0  0
   12.0870  -23.7690  -13.3570 C   0  0  0  0  0  1  0  0  0  0  0  0
   12.7050  -22.6200  -12.5850 C   0  0  0  0  0  0  0  0  0  0  0  0
   11.8590  -21.6720  -12.0480 N   0  0  0  0  0  0  0  0  0  0  0  0
   12.4550  -20.7130  -11.1240 C   0  0  0  0  0  2  0  0  0  0  0  0
   14.2350  -20.9570  -11.3690 S   0  0  0  0  0  0  0  0  0  0  0  0
   13.9980  -22.4420  -12.2770 C   0  0  0  0  0  0  0  0  0  0  0  0
   10.8460  -21.7370  -12.1030 H   0  0  0  0  0  0  0  0  0  0  0  0
   23.2160  -22.0900  -10.5890 O   0  0  0  0  0  0  0  0  0  0  0  0
   23.4390  -23.0140  -10.6500 H   0  0  0  0  0  0  0  0  0  0  0  0
   24.6060  -22.8320  -16.4760 C   0  0  1  0  0  0  0  0  0  0  0  0
   25.9120  -22.2190  -17.0400 C   0  0  0  0  0  1  0  0  0  0  0  0
   24.0410  -23.7920  -17.5570 C   0  0  0  0  0  1  0  0  0  0  0  0
   23.5960  -21.6820  -16.3140 C   0  0  0  0  0  1  0  0  0  0  0  0
   26.5030  -28.6390  -16.7770 C   0  0  0  0  0  2  0  0  0  0  0  0
   23.9990  -29.3970  -16.9400 C   0  0  0  0  0  0  0  0  0  0  0  0
   25.3150  -29.4170  -17.2720 N   0  0  0  0  0  0  0  0  0  0  0  0
   23.5440  -28.5890  -16.1260 O   0  0  0  0  0  0  0  0  0  0  0  0
   25.5510  -30.1130  -17.9650 H   0  0  0  0  0  0  0  0  0  0  0  0
   23.0370  -30.4680  -17.5630 C   0  0  0  0  0  2  0  0  0  0  0  0
   20.6890  -31.2350  -16.7100 C   0  0  0  0  0  0  0  0  0  0  0  0
   19.8270  -30.8490  -15.9250 O   0  0  0  0  0  0  0  0  0  0  0  0
   21.6490  -30.3370  -17.0590 N   0  0  0  0  0  0  0  0  0  0  0  0
   21.4850  -29.4080  -16.6920 H   0  0  0  0  0  0  0  0  0  0  0  0
   20.7140  -32.7400  -17.0880 C   0  0  0  0  0  2  0  0  0  0  0  0
   21.1270  -33.5970  -15.8560 C   0  0  0  0  0  3  0  0  0  0  0  0
   22.4590  -33.1400  -15.4870 N   0  0  0  0  0  0  0  0  0  0  0  0
   21.1480  -35.1110  -16.0280 C   0  0  0  0  0  0  0  0  0  0  0  0
   20.9180  -35.8000  -17.1520 N   0  0  0  0  0  0  0  0  0  0  0  0
   21.1580  -37.1260  -16.8370 N   0  0  0  0  0  0  0  0  0  0  0  0
   21.5150  -37.1370  -15.5480 C   0  0  0  0  0  0  0  0  0  0  0  0
   21.9310  -38.3790  -14.8180 C   0  0  0  0  0  1  0  0  0  0  0  0
   21.4880  -35.9080  -14.9880 N   0  0  0  0  0  0  0  0  0  0  0  0
   21.7450  -35.5030  -13.6600 C   0  0  0  0  0  0  0  0  0  0  0  0
   21.2510  -36.3520  -12.2290 S   0  0  0  0  0  0  0  0  0  0  0  0
   21.8710  -35.0840  -11.2070 C   0  0  0  0  0  0  0  0  0  0  0  0
   21.7490  -35.2070   -9.7220 C   0  0  0  0  0  1  0  0  0  0  0  0
   22.4140  -34.0500  -11.9370 C   0  0  0  0  0  0  0  0  0  0  0  0
   22.9550  -32.7960  -11.2950 C   0  0  0  0  0  1  0  0  0  0  0  0
   22.3800  -34.3220  -13.3490 C   0  0  0  0  0  0  0  0  0  0  0  0
   22.9920  -33.4240  -14.3680 C   0  0  0  0  0  0  0  0  0  0  0  0
   24.3110  -32.8360  -14.0980 C   0  0  0  0  0  0  0  0  0  0  0  0
   25.3830  -33.6430  -13.6640 C   0  0  0  0  0  3  0  0  0  0  0  0
   26.6350  -33.0580  -13.3960 C   0  0  0  0  0  3  0  0  0  0  0  0
   26.8110  -31.6710  -13.5430 C   0  0  0  0  0  0  0  0  0  0  0  0
   28.3440  -30.9500  -13.2280 Cl  0  0  0  0  0  0  0  0  0  0  0  0
   25.7220  -30.8660  -13.9150 C   0  0  0  0  0  3  0  0  0  0  0  0
   24.4820  -31.4480  -14.2180 C   0  0  0  0  0  3  0  0  0  0  0  0
  1  9  1  0
  1  2  1  0
  2  3  2  0
  4  5  1  0
  5  2  1  0
  5  8  1  0
  6  4  2  0
  7  1  1  0
  9 15  1  0
 10 18  1  0
 10 11  1  0
 11 12  1  0
 12 35  1  0
 13 12  1  0
 14 13  1  0
 14 10  1  0
 15 14  1  0
 16 15  2  0
 17 20  1  0
 18 17  1  0
 19 18  2  0
 21 27  1  0
 21 17  1  0
 22 33  1  0
 22 23  1  0
 24 23  2  0
 25 22  2  0
 26 25  1  0
 26 27  2  0
 27 24  1  0
 28 29  1  0
 29 33  2  0
 29 30  1  0
 30 31  1  0
 32 31  1  0
 33 32  1  0
 34 30  1  0
 36 35  1  0
 37 40  1  1
 37  9  1  0
 38 37  1  0
 39 37  1  0
 41  4  1  0
 42 44  2  0
 43 42  1  0
 43 41  1  0
 45 43  1  0
 46 49  1  0
 46 42  1  0
 47 48  2  0
 49 47  1  0
 49 50  1  0
 51 47  1  0
 52 51  1  0
 52 53  1  0
 53 67  2  0
 54 52  1  0
 54 59  1  0
 55 56  1  0
 55 54  2  0
 56 57  2  0
 57 59  1  0
 57 58  1  0
 59 60  1  0
 60 66  2  0
 60 61  1  0
 61 62  1  0
 62 63  1  0
 64 65  1  0
 64 62  2  0
 66 64  1  0
 67 68  1  0
 67 66  1  0
 68 69  1  0
 69 70  2  0
 71 70  1  0
 71 72  1  0
 73 71  2  0
 74 68  2  0
 74 73  1  0
M  ISO  4   2 101   5 101  47 100  49 100
M  END
>  <TORSDO>  (146) 
F 15

>  <SCORE>  (146) 
-12.640

>  <name>  (146) 
145

>  <ligand_id>  (146) 
145

>  <original_smiles>  (146) 
[H]OC1([H])C([H])([H])N(C(=O)C([H])(N([H])C(=O)N([H])C(=O)C([H])([H])N([H])C(=O)C([H])([H])N([H])C(=O)C([H])([H])C2([H])N=C(c3c([H])c([H])c(Cl)c([H])c3[H])c3c(sc(C([H])([H])[H])c3C([H])([H])[H])-n3c(C([H])([H])[H])nnc32)C(C([H])([H])[H])(C([H])([H])[H])C([H])([H])[H])C([H])(C(=O)N([H])C([H])([H])c2c([H])c([H])c(C3=C(C([H])([H])[H])N([H])C([H])([H])S3)c([H])c2[H])C1([H])[H]

>  <smiles>  (146) 
[H]OC1([H])C([H])([H])N(C(=O)C([H])(N([H])C(=O)N([H])C(=O)C([H])([H])N([H])C(=O)C([H])([H])N([H])C(=O)C([H])([H])C2([H])N=C(c3c([H])c([H])c(Cl)c([H])c3[H])c3c(sc(C([H])([H])[H])c3C([H])([H])[H])-n3c(C([H])([H])[H])nnc32)C(C([H])([H])[H])(C([H])([H])[H])C([H])([H])[H])C([H])(C(=O)N([H])C([H])([H])c2c([H])c([H])c(C3=C(C([H])([H])[H])N([H])C([H])([H])S3)c([H])c2[H])C1([H])[H]

$$$$
146:0:0
     RDKit          3D

 80 86  0  0  1  0  0  0  0  0999 V2000
   25.7700  -24.5850  -15.5480 N   0  0  0  0  0  0  0  0  0  0  0  0
   26.7170  -25.2330  -14.8790 C   0  0  0  0  0  0  0  0  0  0  0  0
   27.3100  -24.8150  -13.8740 O   0  0  0  0  0  0  0  0  0  0  0  0
   26.0090  -27.2470  -16.0470 C   0  0  0  0  0  0  0  0  0  0  0  0
   24.7990  -27.3780  -15.4670 N   0  0  0  0  0  4  0  0  0  0  0  0
   27.0040  -26.4570  -15.5560 N   0  0  0  0  0  0  0  0  0  0  0  0
   26.1670  -27.9530  -17.1910 N   0  0  0  0  0  0  0  0  0  0  0  0
   25.4540  -25.0050  -16.4070 H   0  0  0  0  0  0  0  0  0  0  0  0
   24.3740  -26.6750  -14.8640 H   0  0  0  0  0  0  0  0  0  0  0  0
   24.2160  -28.1550  -15.7240 H   0  0  0  0  0  0  0  0  0  0  0  0
   27.8990  -26.9140  -15.4720 H   0  0  0  0  0  0  0  0  0  0  0  0
   27.0140  -27.9620  -17.7510 H   0  0  0  0  0  0  0  0  0  0  0  0
   24.9270  -23.4840  -15.1320 C   0  0  0  0  0  3  0  0  0  0  0  0
   21.8870  -23.8920  -12.6780 C   0  0  0  0  0  3  0  0  0  0  0  0
   21.3860  -22.6750  -11.8870 C   0  0  0  0  0  2  0  0  0  0  0  0
   22.6130  -21.8050  -11.7160 C   0  0  0  0  0  3  0  0  0  0  0  0
   23.4710  -22.0880  -12.9470 C   0  0  0  0  0  2  0  0  0  0  0  0
   23.0430  -23.3960  -13.4500 N   0  0  0  0  0  0  0  0  0  0  0  0
   23.7090  -24.1080  -14.3880 C   0  0  0  0  0  0  0  0  0  0  0  0
   23.4130  -25.2840  -14.6320 O   0  0  0  0  0  0  0  0  0  0  0  0
   19.9550  -25.3690  -12.8840 N   0  0  0  0  0  0  0  0  0  0  0  0
   20.7280  -24.4720  -13.5070 C   0  0  0  0  0  0  0  0  0  0  0  0
   20.5090  -24.0770  -14.6540 O   0  0  0  0  0  0  0  0  0  0  0  0
   20.2180  -25.6500  -11.9500 H   0  0  0  0  0  0  0  0  0  0  0  0
   18.6990  -25.8950  -13.4000 C   0  0  0  0  0  2  0  0  0  0  0  0
   15.3050  -23.2850  -12.6090 C   0  0  0  0  0  0  0  0  0  0  0  0
   16.3380  -23.4130  -11.6580 C   0  0  0  0  0  3  0  0  0  0  0  0
   17.4360  -24.2530  -11.9100 C   0  0  0  0  0  3  0  0  0  0  0  0
   15.3860  -24.0050  -13.8200 C   0  0  0  0  0  3  0  0  0  0  0  0
   16.4860  -24.8450  -14.0730 C   0  0  0  0  0  3  0  0  0  0  0  0
   17.5170  -24.9740  -13.1200 C   0  0  0  0  0  0  0  0  0  0  0  0
   12.1950  -23.8370  -13.2650 C   0  0  0  0  0  1  0  0  0  0  0  0
   12.8310  -22.6490  -12.5700 C   0  0  0  0  0  0  0  0  0  0  0  0
   11.9970  -21.6650  -12.0800 N   0  0  0  0  0  0  0  0  0  0  0  0
   12.6110  -20.6580  -11.2220 C   0  0  0  0  0  2  0  0  0  0  0  0
   14.3870  -20.9300  -11.4700 S   0  0  0  0  0  0  0  0  0  0  0  0
   14.1280  -22.4630  -12.2870 C   0  0  0  0  0  0  0  0  0  0  0  0
   10.9840  -21.7240  -12.1190 H   0  0  0  0  0  0  0  0  0  0  0  0
   23.3350  -22.1900  -10.5570 O   0  0  0  0  0  0  0  0  0  0  0  0
   23.5770  -23.1060  -10.6410 H   0  0  0  0  0  0  0  0  0  0  0  0
   24.5340  -22.7190  -16.4480 C   0  0  1  0  0  0  0  0  0  0  0  0
   25.7800  -21.9680  -16.9760 C   0  0  0  0  0  1  0  0  0  0  0  0
   24.0230  -23.6490  -17.5800 C   0  0  0  0  0  1  0  0  0  0  0  0
   23.4500  -21.6570  -16.1740 C   0  0  0  0  0  1  0  0  0  0  0  0
   25.1220  -28.7680  -17.6460 O   0  0  0  0  0  0  0  0  0  0  0  0
   23.9770  -28.0190  -18.0900 C   0  0  0  0  0  2  0  0  0  0  0  0
   22.8570  -28.9560  -18.4890 C   0  0  0  0  0  0  0  0  0  0  0  0
   22.8760  -29.4320  -19.7500 N   0  0  0  0  0  4  0  0  0  0  0  0
   21.8900  -29.3150  -17.6010 N   0  0  0  0  0  0  0  0  0  0  0  0
   23.6540  -29.2000  -20.3520 H   0  0  0  0  0  0  0  0  0  0  0  0
   22.1090  -29.9110  -20.1920 H   0  0  0  0  0  0  0  0  0  0  0  0
   21.8700  -28.9830  -16.6440 H   0  0  0  0  0  0  0  0  0  0  0  0
   20.4230  -31.0010  -16.9470 C   0  0  0  0  0  0  0  0  0  0  0  0
   20.1570  -30.5440  -15.8290 O   0  0  0  0  0  0  0  0  0  0  0  0
   20.9300  -30.2700  -17.9530 N   0  0  0  0  0  0  0  0  0  0  0  0
   21.2560  -30.7080  -18.7980 H   0  0  0  0  0  0  0  0  0  0  0  0
   20.3210  -32.5080  -17.2230 C   0  0  0  0  0  2  0  0  0  0  0  0
   20.8890  -33.3670  -16.0630 C   0  0  0  0  0  3  0  0  0  0  0  0
   22.2400  -32.9120  -15.7200 N   0  0  0  0  0  0  0  0  0  0  0  0
   20.9110  -34.8570  -16.3560 C   0  0  0  0  0  0  0  0  0  0  0  0
   20.6660  -35.4450  -17.5340 N   0  0  0  0  0  0  0  0  0  0  0  0
   20.8940  -36.7930  -17.3340 N   0  0  0  0  0  0  0  0  0  0  0  0
   21.2710  -36.9120  -16.0580 C   0  0  0  0  0  0  0  0  0  0  0  0
   21.6750  -38.2150  -15.4360 C   0  0  0  0  0  1  0  0  0  0  0  0
   21.2740  -35.7330  -15.4000 N   0  0  0  0  0  0  0  0  0  0  0  0
   21.5670  -35.4290  -14.0560 C   0  0  0  0  0  0  0  0  0  0  0  0
   21.0790  -36.3750  -12.6860 S   0  0  0  0  0  0  0  0  0  0  0  0
   21.7410  -35.2000  -11.5850 C   0  0  0  0  0  0  0  0  0  0  0  0
   21.6410  -35.4370  -10.1120 C   0  0  0  0  0  1  0  0  0  0  0  0
   22.2910  -34.1220  -12.2450 C   0  0  0  0  0  0  0  0  0  0  0  0
   22.8690  -32.9350  -11.5150 C   0  0  0  0  0  1  0  0  0  0  0  0
   22.2240  -34.2790  -13.6760 C   0  0  0  0  0  0  0  0  0  0  0  0
   22.8190  -33.3000  -14.6440 C   0  0  0  0  0  0  0  0  0  0  0  0
   24.1680  -32.7650  -14.3610 C   0  0  0  0  0  0  0  0  0  0  0  0
   25.1820  -33.6200  -13.8770 C   0  0  0  0  0  3  0  0  0  0  0  0
   26.4590  -33.1080  -13.5760 C   0  0  0  0  0  3  0  0  0  0  0  0
   26.7210  -31.7370  -13.7490 C   0  0  0  0  0  0  0  0  0  0  0  0
   28.2760  -31.0890  -13.3870 Cl  0  0  0  0  0  0  0  0  0  0  0  0
   25.7070  -30.8870  -14.2100 C   0  0  0  0  0  3  0  0  0  0  0  0
   24.4370  -31.3920  -14.5390 C   0  0  0  0  0  3  0  0  0  0  0  0
  1 13  1  0
  1  2  1  0
  2  3  2  0
  4  6  1  0
  4  5  2  0
  5  9  1  0
  6 11  1  0
  6  2  1  0
  7  4  1  0
  8  1  1  0
 10  5  1  0
 12  7  1  0
 13 19  1  0
 14 22  1  0
 14 15  1  0
 15 16  1  0
 16 39  1  0
 17 16  1  0
 18 17  1  0
 18 14  1  0
 19 18  1  0
 20 19  2  0
 21 24  1  0
 22 21  1  0
 23 22  2  0
 25 31  1  0
 25 21  1  0
 26 37  1  0
 26 27  1  0
 28 27  2  0
 29 26  2  0
 30 29  1  0
 30 31  2  0
 31 28  1  0
 32 33  1  0
 33 37  2  0
 33 34  1  0
 34 35  1  0
 36 35  1  0
 37 36  1  0
 38 34  1  0
 40 39  1  0
 41 44  1  1
 41 13  1  0
 42 41  1  0
 43 41  1  0
 45  7  1  0
 46 45  1  0
 47 46  1  0
 47 49  1  0
 48 47  2  0
 49 52  1  0
 50 48  1  0
 51 48  1  0
 53 54  2  0
 55 49  1  0
 55 53  1  0
 56 55  1  0
 57 53  1  0
 58 57  1  0
 58 59  1  0
 59 73  2  0
 60 58  1  0
 60 65  1  0
 61 62  1  0
 61 60  2  0
 62 63  2  0
 63 64  1  0
 63 65  1  0
 65 66  1  0
 66 72  2  0
 66 67  1  0
 67 68  1  0
 68 69  1  0
 70 68  2  0
 70 71  1  0
 72 70  1  0
 73 74  1  0
 73 72  1  0
 74 75  1  0
 75 76  2  0
 77 76  1  0
 77 78  1  0
 79 77  2  0
 80 74  2  0
 80 79  1  0
M  ISO  4   2 101   6 101  53 100  55 100
M  END
>  <TORSDO>  (147) 
F 15

>  <SCORE>  (147) 
-12.890

>  <name>  (147) 
146

>  <ligand_id>  (147) 
146

>  <original_smiles>  (147) 
[H]OC1([H])C([H])([H])N(C(=O)C([H])(N([H])C(=O)N([H])C(N([H])[H])=[N+]([H])OC([H])([H])C(N([H])[H])=[N+]([H])N([H])C(=O)C([H])([H])C2([H])N=C(c3c([H])c([H])c(Cl)c([H])c3[H])c3c(sc(C([H])([H])[H])c3C([H])([H])[H])-n3c(C([H])([H])[H])nnc32)C(C([H])([H])[H])(C([H])([H])[H])C([H])([H])[H])C([H])(C(=O)N([H])C([H])([H])c2c([H])c([H])c(C3=C(C([H])([H])[H])N([H])C([H])([H])S3)c([H])c2[H])C1([H])[H]

>  <smiles>  (147) 
[H]OC1([H])C([H])([H])N(C(=O)C([H])(N([H])C(=O)N([H])C(N([H])[H])=[N+]([H])OC([H])([H])C(N([H])[H])=[N+]([H])N([H])C(=O)C([H])([H])C2([H])N=C(c3c([H])c([H])c(Cl)c([H])c3[H])c3c(sc(C([H])([H])[H])c3C([H])([H])[H])-n3c(C([H])([H])[H])nnc32)C(C([H])([H])[H])(C([H])([H])[H])C([H])([H])[H])C([H])(C(=O)N([H])C([H])([H])c2c([H])c([H])c(C3=C(C([H])([H])[H])N([H])C([H])([H])S3)c([H])c2[H])C1([H])[H]

$$$$
147:0:0
     RDKit          3D

 75 81  0  0  1  0  0  0  0  0999 V2000
   25.8960  -24.3500  -15.2440 N   0  0  0  0  0  0  0  0  0  0  0  0
   26.9410  -24.8180  -14.5650 C   0  0  0  0  0  0  0  0  0  0  0  0
   27.4160  -24.2500  -13.5760 O   0  0  0  0  0  0  0  0  0  0  0  0
   27.3640  -26.0010  -15.0610 N   0  0  0  0  0  0  0  0  0  0  0  0
   25.6070  -24.9390  -16.0100 H   0  0  0  0  0  0  0  0  0  0  0  0
   28.0420  -26.5670  -14.5700 H   0  0  0  0  0  0  0  0  0  0  0  0
   25.8510  -27.4150  -16.0060 N   0  0  0  0  0  2  0  0  0  0  0  0
   26.7420  -26.5740  -16.2060 N   0  0  0  0  0  2  0  0  0  0  0  0
   24.6910  -27.3080  -16.9300 C   0  0  0  0  0  2  0  0  0  0  0  0
   25.4710  -28.5720  -19.0140 C   0  0  0  0  0  1  0  0  0  0  0  0
   24.5690  -28.6070  -17.7680 C   0  0  0  0  0  3  0  0  0  0  0  0
   23.0910  -28.7970  -18.1660 C   0  0  0  0  0  0  0  0  0  0  0  0
   22.4550  -29.9170  -17.7920 N   0  0  0  0  0  0  0  0  0  0  0  0
   22.5020  -27.8950  -18.7710 O   0  0  0  0  0  0  0  0  0  0  0  0
   22.8580  -30.6630  -17.2340 H   0  0  0  0  0  0  0  0  0  0  0  0
   20.4650  -30.7700  -16.8860 C   0  0  0  0  0  0  0  0  0  0  0  0
   19.9190  -30.4020  -15.8470 O   0  0  0  0  0  0  0  0  0  0  0  0
   21.0430  -29.8850  -17.7050 N   0  0  0  0  0  0  0  0  0  0  0  0
   20.7930  -28.9080  -17.6070 H   0  0  0  0  0  0  0  0  0  0  0  0
   20.5840  -32.2660  -17.2200 C   0  0  0  0  0  2  0  0  0  0  0  0
   21.1510  -33.1000  -16.0490 C   0  0  0  0  0  3  0  0  0  0  0  0
   22.5020  -32.6270  -15.7470 N   0  0  0  0  0  0  0  0  0  0  0  0
   21.1710  -34.5990  -16.3030 C   0  0  0  0  0  0  0  0  0  0  0  0
   20.8890  -35.2210  -17.4540 N   0  0  0  0  0  0  0  0  0  0  0  0
   21.1260  -36.5630  -17.2250 N   0  0  0  0  0  0  0  0  0  0  0  0
   21.5420  -36.6480  -15.9580 C   0  0  0  0  0  0  0  0  0  0  0  0
   21.9710  -37.9310  -15.3140 C   0  0  0  0  0  1  0  0  0  0  0  0
   21.5600  -35.4500  -15.3320 N   0  0  0  0  0  0  0  0  0  0  0  0
   21.8860  -35.1110  -14.0040 C   0  0  0  0  0  0  0  0  0  0  0  0
   21.4460  -36.0270  -12.5970 S   0  0  0  0  0  0  0  0  0  0  0  0
   22.1290  -34.8190  -11.5450 C   0  0  0  0  0  0  0  0  0  0  0  0
   22.0720  -35.0200  -10.0640 C   0  0  0  0  0  1  0  0  0  0  0  0
   22.6500  -33.7530  -12.2470 C   0  0  0  0  0  0  0  0  0  0  0  0
   23.2370  -32.5440  -11.5640 C   0  0  0  0  0  1  0  0  0  0  0  0
   22.5440  -33.9470  -13.6710 C   0  0  0  0  0  0  0  0  0  0  0  0
   23.1050  -32.9860  -14.6770 C   0  0  0  0  0  0  0  0  0  0  0  0
   24.4540  -32.4310  -14.4440 C   0  0  0  0  0  0  0  0  0  0  0  0
   25.4920  -33.2700  -13.9820 C   0  0  0  0  0  3  0  0  0  0  0  0
   26.7730  -32.7380  -13.7360 C   0  0  0  0  0  3  0  0  0  0  0  0
   27.0140  -31.3690  -13.9410 C   0  0  0  0  0  0  0  0  0  0  0  0
   28.5740  -30.7010  -13.6420 Cl  0  0  0  0  0  0  0  0  0  0  0  0
   25.9750  -30.5340  -14.3790 C   0  0  0  0  0  3  0  0  0  0  0  0
   24.6980  -31.0590  -14.6470 C   0  0  0  0  0  3  0  0  0  0  0  0
   24.9620  -23.2880  -14.9320 C   0  0  0  0  0  3  0  0  0  0  0  0
   21.8220  -23.7310  -12.6110 C   0  0  0  0  0  3  0  0  0  0  0  0
   21.2720  -22.5170  -11.8470 C   0  0  0  0  0  2  0  0  0  0  0  0
   22.4810  -21.6320  -11.6250 C   0  0  0  0  0  3  0  0  0  0  0  0
   23.3980  -21.9140  -12.8150 C   0  0  0  0  0  2  0  0  0  0  0  0
   23.0100  -23.2320  -13.3330 N   0  0  0  0  0  0  0  0  0  0  0  0
   23.7260  -23.9400  -14.2420 C   0  0  0  0  0  0  0  0  0  0  0  0
   23.4480  -25.1160  -14.5120 O   0  0  0  0  0  0  0  0  0  0  0  0
   19.9480  -25.2630  -12.9120 N   0  0  0  0  0  0  0  0  0  0  0  0
   20.7070  -24.3250  -13.4880 C   0  0  0  0  0  0  0  0  0  0  0  0
   20.5050  -23.9010  -14.6270 O   0  0  0  0  0  0  0  0  0  0  0  0
   20.1950  -25.5640  -11.9780 H   0  0  0  0  0  0  0  0  0  0  0  0
   18.7240  -25.8170  -13.4750 C   0  0  0  0  0  2  0  0  0  0  0  0
   15.2150  -23.3640  -12.6850 C   0  0  0  0  0  0  0  0  0  0  0  0
   16.2170  -23.5040  -11.7030 C   0  0  0  0  0  3  0  0  0  0  0  0
   17.3540  -24.2920  -11.9560 C   0  0  0  0  0  3  0  0  0  0  0  0
   15.3640  -24.0190  -13.9260 C   0  0  0  0  0  3  0  0  0  0  0  0
   16.5020  -24.8090  -14.1780 C   0  0  0  0  0  3  0  0  0  0  0  0
   17.5030  -24.9500  -13.1960 C   0  0  0  0  0  0  0  0  0  0  0  0
   12.1520  -23.9750  -13.4980 C   0  0  0  0  0  1  0  0  0  0  0  0
   12.7190  -22.8090  -12.7140 C   0  0  0  0  0  0  0  0  0  0  0  0
   11.8350  -21.8790  -12.2070 N   0  0  0  0  0  0  0  0  0  0  0  0
   12.3800  -20.9030  -11.2710 C   0  0  0  0  0  2  0  0  0  0  0  0
   14.1710  -21.1050  -11.4590 S   0  0  0  0  0  0  0  0  0  0  0  0
   13.9970  -22.5990  -12.3680 C   0  0  0  0  0  0  0  0  0  0  0  0
   10.8260  -21.9690  -12.2920 H   0  0  0  0  0  0  0  0  0  0  0  0
   23.1500  -22.0030  -10.4310 O   0  0  0  0  0  0  0  0  0  0  0  0
   23.4160  -22.9150  -10.5050 H   0  0  0  0  0  0  0  0  0  0  0  0
   24.6250  -22.5830  -16.2980 C   0  0  1  0  0  0  0  0  0  0  0  0
   25.8970  -21.8750  -16.8190 C   0  0  0  0  0  1  0  0  0  0  0  0
   24.1430  -23.5590  -17.4020 C   0  0  0  0  0  1  0  0  0  0  0  0
   23.5450  -21.4970  -16.1200 C   0  0  0  0  0  1  0  0  0  0  0  0
  1 44  1  0
  1  2  1  0
  2  3  2  0
  4  6  1  0
  4  2  1  0
  5  1  1  0
  8  7  1  0
  8  4  1  0
  9  7  1  0
 11 10  1  0
 11  9  1  0
 12 13  1  0
 12 11  1  0
 13 18  1  0
 13 15  1  0
 14 12  2  0
 16 17  2  0
 18 19  1  0
 18 16  1  0
 20 16  1  0
 21 20  1  0
 21 22  1  0
 22 36  2  0
 23 21  1  0
 23 28  1  0
 24 25  1  0
 24 23  2  0
 25 26  2  0
 26 28  1  0
 26 27  1  0
 28 29  1  0
 29 35  2  0
 29 30  1  0
 30 31  1  0
 31 32  1  0
 33 34  1  0
 33 31  2  0
 35 33  1  0
 36 37  1  0
 36 35  1  0
 37 38  1  0
 38 39  2  0
 40 39  1  0
 40 41  1  0
 42 40  2  0
 43 37  2  0
 43 42  1  0
 44 50  1  0
 45 53  1  0
 45 46  1  0
 46 47  1  0
 47 70  1  0
 48 47  1  0
 49 48  1  0
 49 45  1  0
 50 49  1  0
 51 50  2  0
 52 55  1  0
 53 52  1  0
 54 53  2  0
 56 62  1  0
 56 52  1  0
 57 68  1  0
 57 58  1  0
 59 58  2  0
 60 57  2  0
 61 60  1  0
 61 62  2  0
 62 59  1  0
 63 64  1  0
 64 68  2  0
 64 65  1  0
 65 66  1  0
 67 66  1  0
 68 67  1  0
 69 65  1  0
 71 70  1  0
 72 75  1  1
 72 44  1  0
 73 72  1  0
 74 72  1  0
M  ISO  4   2 101   4 101  16 100  18 100
M  END
>  <TORSDO>  (148) 
F 16

>  <SCORE>  (148) 
-12.263

>  <name>  (148) 
147

>  <ligand_id>  (148) 
147

>  <original_smiles>  (148) 
[H]OC1([H])C([H])([H])N(C(=O)C([H])(N([H])C(=O)N([H])N=NC([H])([H])C([H])(C(=O)N([H])N([H])C(=O)C([H])([H])C2([H])N=C(c3c([H])c([H])c(Cl)c([H])c3[H])c3c(sc(C([H])([H])[H])c3C([H])([H])[H])-n3c(C([H])([H])[H])nnc32)C([H])([H])[H])C(C([H])([H])[H])(C([H])([H])[H])C([H])([H])[H])C([H])(C(=O)N([H])C([H])([H])c2c([H])c([H])c(C3=C(C([H])([H])[H])N([H])C([H])([H])S3)c([H])c2[H])C1([H])[H]

>  <smiles>  (148) 
[H]OC1([H])C([H])([H])N(C(=O)C([H])(N([H])C(=O)N([H])N=NC([H])([H])C([H])(C(=O)N([H])N([H])C(=O)C([H])([H])C2([H])N=C(c3c([H])c([H])c(Cl)c([H])c3[H])c3c(sc(C([H])([H])[H])c3C([H])([H])[H])-n3c(C([H])([H])[H])nnc32)C([H])([H])[H])C(C([H])([H])[H])(C([H])([H])[H])C([H])([H])[H])C([H])(C(=O)N([H])C([H])([H])c2c([H])c([H])c(C3=C(C([H])([H])[H])N([H])C([H])([H])S3)c([H])c2[H])C1([H])[H]

$$$$
148:0:0
     RDKit          3D

 79 86  0  0  1  0  0  0  0  0999 V2000
   23.8520  -28.1740  -15.6430 C   0  0  0  0  0  3  0  0  0  0  0  0
   23.2610  -28.1080  -16.9120 C   0  0  0  0  0  3  0  0  0  0  0  0
   25.1890  -27.7890  -15.4790 C   0  0  0  0  0  3  0  0  0  0  0  0
   25.3790  -27.3690  -17.8730 C   0  0  0  0  0  3  0  0  0  0  0  0
   24.0140  -27.6910  -18.0400 C   0  0  0  0  0  0  0  0  0  0  0  0
   25.9620  -27.3830  -16.5880 C   0  0  0  0  0  0  0  0  0  0  0  0
   27.3760  -26.8460  -16.3780 C   0  0  0  0  0  2  0  0  0  0  0  0
   25.8940  -24.6810  -15.4310 N   0  0  0  0  0  0  0  0  0  0  0  0
   26.9030  -25.0630  -14.6450 C   0  0  0  0  0  0  0  0  0  0  0  0
   27.1990  -24.4960  -13.5950 O   0  0  0  0  0  0  0  0  0  0  0  0
   27.5690  -26.1370  -15.1010 N   0  0  0  0  0  0  0  0  0  0  0  0
   25.6650  -25.2990  -16.1960 H   0  0  0  0  0  0  0  0  0  0  0  0
   28.3430  -26.4570  -14.5340 H   0  0  0  0  0  0  0  0  0  0  0  0
   24.9390  -23.5970  -15.2270 C   0  0  0  0  0  3  0  0  0  0  0  0
   21.8740  -23.9530  -12.7920 C   0  0  0  0  0  3  0  0  0  0  0  0
   21.4320  -22.7530  -11.9430 C   0  0  0  0  0  2  0  0  0  0  0  0
   22.7010  -21.9520  -11.7360 C   0  0  0  0  0  3  0  0  0  0  0  0
   23.5490  -22.2210  -12.9760 C   0  0  0  0  0  2  0  0  0  0  0  0
   23.0600  -23.4840  -13.5380 N   0  0  0  0  0  0  0  0  0  0  0  0
   23.6890  -24.1870  -14.5120 C   0  0  0  0  0  0  0  0  0  0  0  0
   23.3050  -25.3140  -14.8250 O   0  0  0  0  0  0  0  0  0  0  0  0
   19.8980  -25.3580  -13.0780 N   0  0  0  0  0  0  0  0  0  0  0  0
   20.6880  -24.4390  -13.6450 C   0  0  0  0  0  0  0  0  0  0  0  0
   20.4660  -23.9490  -14.7560 O   0  0  0  0  0  0  0  0  0  0  0  0
   20.1640  -25.7190  -12.1720 H   0  0  0  0  0  0  0  0  0  0  0  0
   18.6230  -25.8130  -13.6150 C   0  0  0  0  0  2  0  0  0  0  0  0
   15.3090  -23.1720  -12.6090 C   0  0  0  0  0  0  0  0  0  0  0  0
   16.3520  -23.3860  -11.6840 C   0  0  0  0  0  3  0  0  0  0  0  0
   17.4250  -24.2340  -12.0070 C   0  0  0  0  0  3  0  0  0  0  0  0
   15.3530  -23.8160  -13.8650 C   0  0  0  0  0  3  0  0  0  0  0  0
   16.4290  -24.6660  -14.1880 C   0  0  0  0  0  3  0  0  0  0  0  0
   17.4700  -24.8800  -13.2620 C   0  0  0  0  0  0  0  0  0  0  0  0
   12.1670  -23.6320  -13.1900 C   0  0  0  0  0  1  0  0  0  0  0  0
   12.8480  -22.4890  -12.4640 C   0  0  0  0  0  0  0  0  0  0  0  0
   12.0510  -21.5090  -11.9100 N   0  0  0  0  0  0  0  0  0  0  0  0
   12.7090  -20.5490  -11.0320 C   0  0  0  0  0  2  0  0  0  0  0  0
   14.4710  -20.8470  -11.3440 S   0  0  0  0  0  0  0  0  0  0  0  0
   14.1580  -22.3420  -12.2160 C   0  0  0  0  0  0  0  0  0  0  0  0
   11.0350  -21.5500  -11.9190 H   0  0  0  0  0  0  0  0  0  0  0  0
   23.3950  -22.4240  -10.5920 O   0  0  0  0  0  0  0  0  0  0  0  0
   23.5920  -23.3480  -10.7180 H   0  0  0  0  0  0  0  0  0  0  0  0
   24.6180  -22.9680  -16.6340 C   0  0  1  0  0  0  0  0  0  0  0  0
   25.9090  -22.3370  -17.2010 C   0  0  0  0  0  1  0  0  0  0  0  0
   24.1020  -23.9880  -17.6760 C   0  0  0  0  0  1  0  0  0  0  0  0
   23.5710  -21.8380  -16.5220 C   0  0  0  0  0  1  0  0  0  0  0  0
   23.3640  -27.5290  -19.4130 C   0  0  0  0  0  2  0  0  0  0  0  0
   21.5980  -29.2180  -19.7460 C   0  0  0  0  0  0  0  0  0  0  0  0
   21.9800  -27.9810  -19.4240 N   0  0  0  0  0  0  0  0  0  0  0  0
   22.2900  -29.9770  -20.4310 O   0  0  0  0  0  0  0  0  0  0  0  0
   21.3190  -27.4030  -18.9240 H   0  0  0  0  0  0  0  0  0  0  0  0
   20.2660  -29.6950  -19.1610 C   0  0  0  0  0  2  0  0  0  0  0  0
   20.5790  -31.5980  -17.5440 C   0  0  0  0  0  0  0  0  0  0  0  0
   20.3690  -30.9690  -16.5020 O   0  0  0  0  0  0  0  0  0  0  0  0
   20.4280  -31.0890  -18.7750 N   0  0  0  0  0  0  0  0  0  0  0  0
   20.6390  -31.7090  -19.5470 H   0  0  0  0  0  0  0  0  0  0  0  0
   20.9670  -33.0780  -17.5480 C   0  0  0  0  0  2  0  0  0  0  0  0
   21.4540  -33.6850  -16.2130 C   0  0  0  0  0  3  0  0  0  0  0  0
   22.7800  -33.1610  -15.8800 N   0  0  0  0  0  0  0  0  0  0  0  0
   21.5030  -35.2040  -16.2650 C   0  0  0  0  0  0  0  0  0  0  0  0
   21.3110  -35.9720  -17.3460 N   0  0  0  0  0  0  0  0  0  0  0  0
   21.5230  -37.2700  -16.9270 N   0  0  0  0  0  0  0  0  0  0  0  0
   21.8390  -37.1850  -15.6310 C   0  0  0  0  0  0  0  0  0  0  0  0
   22.2090  -38.3720  -14.7970 C   0  0  0  0  0  1  0  0  0  0  0  0
   21.8140  -35.9170  -15.1670 N   0  0  0  0  0  0  0  0  0  0  0  0
   22.0370  -35.4020  -13.8750 C   0  0  0  0  0  0  0  0  0  0  0  0
   21.4870  -36.1250  -12.3990 S   0  0  0  0  0  0  0  0  0  0  0  0
   22.0910  -34.7850  -11.4670 C   0  0  0  0  0  0  0  0  0  0  0  0
   21.9220  -34.7870   -9.9810 C   0  0  0  0  0  1  0  0  0  0  0  0
   22.6680  -33.8190  -12.2620 C   0  0  0  0  0  0  0  0  0  0  0  0
   23.2060  -32.5260  -11.7020 C   0  0  0  0  0  1  0  0  0  0  0  0
   22.6720  -34.1990  -13.6520 C   0  0  0  0  0  0  0  0  0  0  0  0
   23.3110  -33.3760  -14.7330 C   0  0  0  0  0  0  0  0  0  0  0  0
   24.6500  -32.7980  -14.4740 C   0  0  0  0  0  0  0  0  0  0  0  0
   25.6400  -33.5630  -13.8160 C   0  0  0  0  0  3  0  0  0  0  0  0
   26.9030  -33.0030  -13.5390 C   0  0  0  0  0  3  0  0  0  0  0  0
   27.1850  -31.6830  -13.9280 C   0  0  0  0  0  0  0  0  0  0  0  0
   28.7200  -30.9780  -13.5940 Cl  0  0  0  0  0  0  0  0  0  0  0  0
   26.2110  -30.9320  -14.6020 C   0  0  0  0  0  3  0  0  0  0  0  0
   24.9430  -31.4780  -14.8750 C   0  0  0  0  0  3  0  0  0  0  0  0
  1  3  1  0
  2  1  2  0
  4  6  1  0
  5  4  2  0
  5  2  1  0
  6  7  1  0
  6  3  2  0
  7 11  1  0
  8 14  1  0
  8  9  1  0
  9 10  2  0
 11  9  1  0
 11 13  1  0
 12  8  1  0
 14 20  1  0
 15 23  1  0
 15 16  1  0
 16 17  1  0
 17 40  1  0
 18 17  1  0
 19 18  1  0
 19 15  1  0
 20 19  1  0
 21 20  2  0
 22 25  1  0
 23 22  1  0
 24 23  2  0
 26 32  1  0
 26 22  1  0
 27 38  1  0
 27 28  1  0
 29 28  2  0
 30 27  2  0
 31 30  1  0
 31 32  2  0
 32 29  1  0
 33 34  1  0
 34 38  2  0
 34 35  1  0
 35 36  1  0
 37 36  1  0
 38 37  1  0
 39 35  1  0
 41 40  1  0
 42 45  1  1
 42 14  1  0
 43 42  1  0
 44 42  1  0
 46  5  1  0
 47 48  1  0
 47 51  1  0
 48 46  1  0
 48 50  1  0
 49 47  2  0
 51 54  1  0
 52 53  2  0
 54 52  1  0
 55 54  1  0
 56 52  1  0
 57 56  1  0
 57 58  1  0
 58 72  2  0
 59 57  1  0
 59 64  1  0
 60 61  1  0
 60 59  2  0
 61 62  2  0
 62 64  1  0
 62 63  1  0
 64 65  1  0
 65 71  2  0
 65 66  1  0
 66 67  1  0
 67 68  1  0
 69 70  1  0
 69 67  2  0
 71 69  1  0
 72 73  1  0
 72 71  1  0
 73 74  1  0
 74 75  2  0
 76 77  1  0
 76 75  1  0
 78 76  2  0
 79 78  1  0
 79 73  2  0
M  ISO  4   9 101  11 101  52 100  54 100
M  END
>  <TORSDO>  (149) 
F 17

>  <SCORE>  (149) 
-13.682

>  <name>  (149) 
148

>  <ligand_id>  (149) 
148

>  <original_smiles>  (149) 
[H]OC1([H])C([H])([H])N(C(=O)C([H])(N([H])C(=O)N([H])C([H])([H])c2c([H])c([H])c([H])c(C([H])([H])N([H])C(=O)C([H])([H])N([H])C(=O)C([H])([H])C3([H])N=C(c4c([H])c([H])c(Cl)c([H])c4[H])c4c(sc(C([H])([H])[H])c4C([H])([H])[H])-n4c(C([H])([H])[H])nnc43)c2[H])C(C([H])([H])[H])(C([H])([H])[H])C([H])([H])[H])C([H])(C(=O)N([H])C([H])([H])c2c([H])c([H])c(C3=C(C([H])([H])[H])N([H])C([H])([H])S3)c([H])c2[H])C1([H])[H]

>  <smiles>  (149) 
[H]OC1([H])C([H])([H])N(C(=O)C([H])(N([H])C(=O)N([H])C([H])([H])c2c([H])c([H])c([H])c(C([H])([H])N([H])C(=O)C([H])([H])N([H])C(=O)C([H])([H])C3([H])N=C(c4c([H])c([H])c(Cl)c([H])c4[H])c4c(sc(C([H])([H])[H])c4C([H])([H])[H])-n4c(C([H])([H])[H])nnc43)c2[H])C(C([H])([H])[H])(C([H])([H])[H])C([H])([H])[H])C([H])(C(=O)N([H])C([H])([H])c2c([H])c([H])c(C3=C(C([H])([H])[H])N([H])C([H])([H])S3)c([H])c2[H])C1([H])[H]

$$$$
149:0:0
     RDKit          3D

 87 95  0  0  1  0  0  0  0  0999 V2000
   27.3090  -28.9370  -17.2490 C   0  0  0  0  0  0  0  0  0  0  0  0
   27.8770  -27.5440  -17.0130 C   0  0  0  0  0  3  0  0  0  0  0  0
   25.4800  -27.7690  -16.3660 C   0  0  0  0  0  3  0  0  0  0  0  0
   26.6820  -26.7480  -16.4340 C   0  0  0  0  0  3  0  0  0  0  0  0
   28.4600  -26.9370  -18.2990 C   0  0  0  0  0  1  0  0  0  0  0  0
   26.0550  -29.0170  -16.8370 N   0  0  0  0  0  0  0  0  0  0  0  0
   27.9480  -29.8570  -17.7560 O   0  0  0  0  0  0  0  0  0  0  0  0
   25.4870  -29.8410  -16.9660 H   0  0  0  0  0  0  0  0  0  0  0  0
   25.5940  -24.4760  -15.3150 N   0  0  0  0  0  0  0  0  0  0  0  0
   26.6290  -24.9340  -14.6240 C   0  0  0  0  0  0  0  0  0  0  0  0
   27.0930  -24.3640  -13.6300 O   0  0  0  0  0  0  0  0  0  0  0  0
   27.0500  -26.1160  -15.1260 N   0  0  0  0  0  0  0  0  0  0  0  0
   25.2870  -25.0520  -16.0800 H   0  0  0  0  0  0  0  0  0  0  0  0
   27.8000  -26.5600  -14.6120 H   0  0  0  0  0  0  0  0  0  0  0  0
   24.6990  -23.3700  -15.0310 C   0  0  0  0  0  3  0  0  0  0  0  0
   21.5490  -23.7020  -12.7020 C   0  0  0  0  0  3  0  0  0  0  0  0
   21.0200  -22.4630  -11.9640 C   0  0  0  0  0  2  0  0  0  0  0  0
   22.2430  -21.5960  -11.7610 C   0  0  0  0  0  3  0  0  0  0  0  0
   23.1560  -21.9190  -12.9420 C   0  0  0  0  0  2  0  0  0  0  0  0
   22.7480  -23.2400  -13.4320 N   0  0  0  0  0  0  0  0  0  0  0  0
   23.4490  -23.9780  -14.3290 C   0  0  0  0  0  0  0  0  0  0  0  0
   23.1500  -25.1540  -14.5740 O   0  0  0  0  0  0  0  0  0  0  0  0
   19.6710  -25.2310  -12.9830 N   0  0  0  0  0  0  0  0  0  0  0  0
   20.4300  -24.2990  -13.5710 C   0  0  0  0  0  0  0  0  0  0  0  0
   20.2230  -23.8820  -14.7120 O   0  0  0  0  0  0  0  0  0  0  0  0
   19.9190  -25.5250  -12.0490 H   0  0  0  0  0  0  0  0  0  0  0  0
   18.4460  -25.7860  -13.5410 C   0  0  0  0  0  2  0  0  0  0  0  0
   14.9470  -23.3300  -12.7300 C   0  0  0  0  0  0  0  0  0  0  0  0
   15.9710  -23.4420  -11.7670 C   0  0  0  0  0  3  0  0  0  0  0  0
   17.1040  -24.2320  -12.0280 C   0  0  0  0  0  3  0  0  0  0  0  0
   15.0720  -24.0110  -13.9600 C   0  0  0  0  0  3  0  0  0  0  0  0
   16.2070  -24.8000  -14.2190 C   0  0  0  0  0  3  0  0  0  0  0  0
   17.2280  -24.9180  -13.2550 C   0  0  0  0  0  0  0  0  0  0  0  0
   11.8640  -23.9990  -13.4120 C   0  0  0  0  0  1  0  0  0  0  0  0
   12.4470  -22.7950  -12.6980 C   0  0  0  0  0  0  0  0  0  0  0  0
   11.5700  -21.8520  -12.2020 N   0  0  0  0  0  0  0  0  0  0  0  0
   12.1360  -20.8330  -11.3260 C   0  0  0  0  0  2  0  0  0  0  0  0
   13.9230  -21.0280  -11.5680 S   0  0  0  0  0  0  0  0  0  0  0  0
   13.7320  -22.5610  -12.4040 C   0  0  0  0  0  0  0  0  0  0  0  0
   10.5600  -21.9510  -12.2510 H   0  0  0  0  0  0  0  0  0  0  0  0
   22.9050  -21.9550  -10.5590 O   0  0  0  0  0  0  0  0  0  0  0  0
   23.1530  -22.8720  -10.6150 H   0  0  0  0  0  0  0  0  0  0  0  0
   24.3840  -22.6880  -16.4150 C   0  0  1  0  0  0  0  0  0  0  0  0
   25.6760  -22.0180  -16.9410 C   0  0  0  0  0  1  0  0  0  0  0  0
   23.9090  -23.6890  -17.4950 C   0  0  0  0  0  1  0  0  0  0  0  0
   23.3210  -21.5780  -16.2860 C   0  0  0  0  0  1  0  0  0  0  0  0
   24.2260  -27.5380  -17.2450 C   0  0  0  0  0  0  0  0  0  0  0  0
   23.0900  -28.1500  -16.8590 N   0  0  0  0  0  0  0  0  0  0  0  0
   24.2970  -26.8650  -18.2700 O   0  0  0  0  0  0  0  0  0  0  0  0
   23.1360  -28.7580  -16.0560 H   0  0  0  0  0  0  0  0  0  0  0  0
   21.7380  -27.8070  -17.3220 C   0  0  0  0  0  2  0  0  0  0  0  0
   20.9510  -28.8640  -18.1540 C   0  0  0  0  0  3  0  0  0  0  0  0
   21.8510  -28.5260  -21.7690 C   0  0  0  0  0  3  0  0  0  0  0  0
   22.2230  -28.5130  -20.4000 C   0  0  0  0  0  3  0  0  0  0  0  0
   20.5020  -28.7250  -21.8350 C   0  0  0  0  0  0  0  0  0  0  0  0
   21.0970  -28.6970  -19.6470 C   0  0  0  0  0  0  0  0  0  0  0  0
   19.6150  -28.8500  -23.0340 C   0  0  0  0  0  1  0  0  0  0  0  0
   18.6350  -29.0430  -20.1450 C   0  0  0  0  0  1  0  0  0  0  0  0
   20.0260  -28.8230  -20.5300 N   0  0  0  0  0  0  0  0  0  0  0  0
   20.6510  -31.0940  -17.0100 C   0  0  0  0  0  0  0  0  0  0  0  0
   20.0240  -30.6980  -16.0260 O   0  0  0  0  0  0  0  0  0  0  0  0
   21.2650  -30.2610  -17.8670 N   0  0  0  0  0  0  0  0  0  0  0  0
   21.8420  -30.6950  -18.5730 H   0  0  0  0  0  0  0  0  0  0  0  0
   20.8250  -32.6020  -17.2700 C   0  0  0  0  0  2  0  0  0  0  0  0
   21.3190  -33.3800  -16.0270 C   0  0  0  0  0  3  0  0  0  0  0  0
   22.6430  -32.8790  -15.6570 N   0  0  0  0  0  0  0  0  0  0  0  0
   21.3760  -34.8890  -16.2060 C   0  0  0  0  0  0  0  0  0  0  0  0
   21.1900  -35.5730  -17.3440 N   0  0  0  0  0  0  0  0  0  0  0  0
   21.4320  -36.8980  -17.0300 N   0  0  0  0  0  0  0  0  0  0  0  0
   21.7550  -36.9120  -15.7330 C   0  0  0  0  0  0  0  0  0  0  0  0
   22.1510  -38.1560  -14.9950 C   0  0  0  0  0  1  0  0  0  0  0  0
   21.7080  -35.6840  -15.1690 N   0  0  0  0  0  0  0  0  0  0  0  0
   21.9340  -35.2750  -13.8410 C   0  0  0  0  0  0  0  0  0  0  0  0
   21.4020  -36.1250  -12.4260 S   0  0  0  0  0  0  0  0  0  0  0  0
   21.9900  -34.8540  -11.3910 C   0  0  0  0  0  0  0  0  0  0  0  0
   21.8270  -34.9780   -9.9100 C   0  0  0  0  0  1  0  0  0  0  0  0
   22.5490  -33.8170  -12.1080 C   0  0  0  0  0  0  0  0  0  0  0  0
   23.0670  -32.5640  -11.4480 C   0  0  0  0  0  1  0  0  0  0  0  0
   22.5520  -34.0860  -13.5210 C   0  0  0  0  0  0  0  0  0  0  0  0
   23.1740  -33.1710  -14.5320 C   0  0  0  0  0  0  0  0  0  0  0  0
   24.4970  -32.5840  -14.2340 C   0  0  0  0  0  0  0  0  0  0  0  0
   25.5400  -33.4050  -13.7530 C   0  0  0  0  0  3  0  0  0  0  0  0
   26.7950  -32.8470  -13.4410 C   0  0  0  0  0  3  0  0  0  0  0  0
   27.0040  -31.4670  -13.5910 C   0  0  0  0  0  0  0  0  0  0  0  0
   28.5290  -30.7570  -13.2210 Cl  0  0  0  0  0  0  0  0  0  0  0  0
   25.9580  -30.6510  -14.0340 C   0  0  0  0  0  3  0  0  0  0  0  0
   24.7120  -31.1980  -14.3890 C   0  0  0  0  0  3  0  0  0  0  0  0
  1  2  1  0
  1  6  1  0
  2  5  1  0
  2  4  1  0
  3 47  1  0
  4  3  1  0
  4 12  1  0
  6  3  1  0
  7  1  2  0
  8  6  1  0
  9 15  1  0
  9 10  1  0
 10 11  2  0
 12 10  1  0
 12 14  1  0
 13  9  1  0
 15 21  1  0
 16 24  1  0
 16 17  1  0
 17 18  1  0
 18 41  1  0
 19 18  1  0
 20 19  1  0
 20 16  1  0
 21 20  1  0
 22 21  2  0
 23 26  1  0
 24 23  1  0
 25 24  2  0
 27 33  1  0
 27 23  1  0
 28 39  1  0
 28 29  1  0
 30 29  2  0
 31 28  2  0
 32 31  1  0
 32 33  2  0
 33 30  1  0
 34 35  1  0
 35 39  2  0
 35 36  1  0
 36 37  1  0
 38 37  1  0
 39 38  1  0
 40 36  1  0
 42 41  1  0
 43 46  1  1
 43 15  1  0
 44 43  1  0
 45 43  1  0
 47 48  1  0
 48 50  1  0
 49 47  2  0
 51 48  1  0
 52 62  1  0
 52 51  1  0
 53 54  1  0
 54 56  2  0
 55 53  2  0
 55 59  1  0
 56 52  1  0
 57 55  1  0
 59 58  1  0
 59 56  1  0
 60 61  2  0
 62 60  1  0
 63 62  1  0
 64 60  1  0
 65 64  1  0
 65 66  1  0
 66 80  2  0
 67 65  1  0
 67 72  1  0
 68 69  1  0
 68 67  2  0
 69 70  2  0
 70 72  1  0
 70 71  1  0
 72 73  1  0
 73 79  2  0
 73 74  1  0
 74 75  1  0
 75 76  1  0
 77 78  1  0
 77 75  2  0
 79 77  1  0
 80 81  1  0
 80 79  1  0
 81 82  1  0
 82 83  2  0
 84 83  1  0
 84 85  1  0
 86 84  2  0
 87 81  2  0
 87 86  1  0
M  ISO  4  10 101  12 101  60 100  62 100
M  END
>  <TORSDO>  (150) 
F 17

>  <SCORE>  (150) 
-11.294

>  <name>  (150) 
149

>  <ligand_id>  (150) 
149

>  <original_smiles>  (150) 
[H]OC1([H])C([H])([H])N(C(=O)C([H])(N([H])C(=O)N([H])C2([H])C([H])(C(=O)N([H])C([H])([H])C([H])(c3c([H])c([H])c(C([H])([H])[H])n3C([H])([H])[H])N([H])C(=O)C([H])([H])C3([H])N=C(c4c([H])c([H])c(Cl)c([H])c4[H])c4c(sc(C([H])([H])[H])c4C([H])([H])[H])-n4c(C([H])([H])[H])nnc43)N([H])C(=O)C2([H])C([H])([H])[H])C(C([H])([H])[H])(C([H])([H])[H])C([H])([H])[H])C([H])(C(=O)N([H])C([H])([H])c2c([H])c([H])c(C3=C(C([H])([H])[H])N([H])C([H])([H])S3)c([H])c2[H])C1([H])[H]

>  <smiles>  (150) 
[H]OC1([H])C([H])([H])N(C(=O)C([H])(N([H])C(=O)N([H])C2([H])C([H])(C(=O)N([H])C([H])([H])C([H])(c3c([H])c([H])c(C([H])([H])[H])n3C([H])([H])[H])N([H])C(=O)C([H])([H])C3([H])N=C(c4c([H])c([H])c(Cl)c([H])c4[H])c4c(sc(C([H])([H])[H])c4C([H])([H])[H])-n4c(C([H])([H])[H])nnc43)N([H])C(=O)C2([H])C([H])([H])[H])C(C([H])([H])[H])(C([H])([H])[H])C([H])([H])[H])C([H])(C(=O)N([H])C([H])([H])c2c([H])c([H])c(C3=C(C([H])([H])[H])N([H])C([H])([H])S3)c([H])c2[H])C1([H])[H]

$$$$
150:0:0
     RDKit          3D

 79 86  0  0  1  0  0  0  0  0999 V2000
   24.8320  -27.9780  -14.8620 C   0  0  0  0  0  3  0  0  0  0  0  0
   25.5310  -27.6080  -15.9870 C   0  0  0  0  0  0  0  0  0  0  0  0
   23.3810  -27.8780  -16.5380 C   0  0  0  0  0  3  0  0  0  0  0  0
   22.4240  -28.4960  -14.3190 C   0  0  0  0  0  1  0  0  0  0  0  0
   23.5270  -28.1650  -15.2310 N   0  0  0  0  0  0  0  0  0  0  0  0
   24.6120  -27.6390  -17.0090 N   0  0  0  0  0  0  0  0  0  0  0  0
   24.8100  -27.4340  -17.9840 H   0  0  0  0  0  0  0  0  0  0  0  0
   26.9490  -27.1140  -16.1320 C   0  0  0  0  0  2  0  0  0  0  0  0
   25.8440  -24.6930  -15.4240 N   0  0  0  0  0  0  0  0  0  0  0  0
   26.8060  -25.1100  -14.6020 C   0  0  0  0  0  0  0  0  0  0  0  0
   27.1380  -24.5120  -13.5780 O   0  0  0  0  0  0  0  0  0  0  0  0
   27.3600  -26.2670  -14.9980 N   0  0  0  0  0  0  0  0  0  0  0  0
   25.6100  -25.3060  -16.1820 H   0  0  0  0  0  0  0  0  0  0  0  0
   28.1260  -26.6150  -14.4390 H   0  0  0  0  0  0  0  0  0  0  0  0
   24.8990  -23.5930  -15.2740 C   0  0  0  0  0  3  0  0  0  0  0  0
   21.8100  -23.8980  -12.8640 C   0  0  0  0  0  3  0  0  0  0  0  0
   21.3650  -22.6720  -12.0490 C   0  0  0  0  0  2  0  0  0  0  0  0
   22.6390  -21.8810  -11.8350 C   0  0  0  0  0  3  0  0  0  0  0  0
   23.4970  -22.1800  -13.0610 C   0  0  0  0  0  2  0  0  0  0  0  0
   23.0070  -23.4500  -13.6060 N   0  0  0  0  0  0  0  0  0  0  0  0
   23.6380  -24.1620  -14.5690 C   0  0  0  0  0  0  0  0  0  0  0  0
   23.2490  -25.2870  -14.8790 O   0  0  0  0  0  0  0  0  0  0  0  0
   19.8520  -25.3300  -13.1500 N   0  0  0  0  0  0  0  0  0  0  0  0
   20.6300  -24.3990  -13.7150 C   0  0  0  0  0  0  0  0  0  0  0  0
   20.4040  -23.9160  -14.8260 O   0  0  0  0  0  0  0  0  0  0  0  0
   20.1160  -25.6760  -12.2370 H   0  0  0  0  0  0  0  0  0  0  0  0
   18.5810  -25.8010  -13.6860 C   0  0  0  0  0  2  0  0  0  0  0  0
   15.2390  -23.2090  -12.6500 C   0  0  0  0  0  0  0  0  0  0  0  0
   16.2780  -23.4310  -11.7240 C   0  0  0  0  0  3  0  0  0  0  0  0
   17.3600  -24.2630  -12.0570 C   0  0  0  0  0  3  0  0  0  0  0  0
   15.2950  -23.8280  -13.9170 C   0  0  0  0  0  3  0  0  0  0  0  0
   16.3780  -24.6630  -14.2500 C   0  0  0  0  0  3  0  0  0  0  0  0
   17.4190  -24.8840  -13.3240 C   0  0  0  0  0  0  0  0  0  0  0  0
   12.1140  -23.6860  -13.2690 C   0  0  0  0  0  1  0  0  0  0  0  0
   12.7720  -22.5520  -12.5080 C   0  0  0  0  0  0  0  0  0  0  0  0
   11.9600  -21.6020  -11.9340 N   0  0  0  0  0  0  0  0  0  0  0  0
   12.6010  -20.6630  -11.0210 C   0  0  0  0  0  2  0  0  0  0  0  0
   14.3680  -20.9290  -11.3300 S   0  0  0  0  0  0  0  0  0  0  0  0
   14.0780  -22.3990  -12.2460 C   0  0  0  0  0  0  0  0  0  0  0  0
   10.9450  -21.6530  -11.9520 H   0  0  0  0  0  0  0  0  0  0  0  0
   23.3150  -22.3440  -10.6750 O   0  0  0  0  0  0  0  0  0  0  0  0
   23.5230  -23.2640  -10.8020 H   0  0  0  0  0  0  0  0  0  0  0  0
   24.6150  -23.0340  -16.7220 C   0  0  1  0  0  0  0  0  0  0  0  0
   25.9190  -22.4180  -17.2750 C   0  0  0  0  0  1  0  0  0  0  0  0
   24.1360  -24.1160  -17.7230 C   0  0  0  0  0  1  0  0  0  0  0  0
   23.5490  -21.9190  -16.7130 C   0  0  0  0  0  1  0  0  0  0  0  0
   22.1040  -27.6750  -17.3110 C   0  0  0  0  0  2  0  0  0  0  0  0
   21.4450  -28.9550  -17.5390 N   0  0  0  0  0  0  0  0  0  0  0  0
   21.1030  -29.4410  -16.7170 H   0  0  0  0  0  0  0  0  0  0  0  0
   21.3610  -29.6340  -18.7140 C   0  0  0  0  0  0  0  0  0  0  0  0
   21.7100  -29.0180  -20.2220 S   0  0  0  0  0  0  0  0  0  0  0  0
   20.7210  -31.6570  -17.4700 C   0  0  0  0  0  0  0  0  0  0  0  0
   20.3160  -31.1480  -16.4180 O   0  0  0  0  0  0  0  0  0  0  0  0
   21.0210  -30.9430  -18.5770 N   0  0  0  0  0  0  0  0  0  0  0  0
   21.1110  -31.4830  -19.4240 H   0  0  0  0  0  0  0  0  0  0  0  0
   20.9720  -33.1680  -17.5480 C   0  0  0  0  0  2  0  0  0  0  0  0
   21.4510  -33.7960  -16.2110 C   0  0  0  0  0  3  0  0  0  0  0  0
   22.7840  -33.2830  -15.8720 N   0  0  0  0  0  0  0  0  0  0  0  0
   21.4790  -35.3140  -16.2340 C   0  0  0  0  0  0  0  0  0  0  0  0
   21.2840  -36.1020  -17.3000 N   0  0  0  0  0  0  0  0  0  0  0  0
   21.4640  -37.3940  -16.8460 N   0  0  0  0  0  0  0  0  0  0  0  0
   21.7680  -37.2870  -15.5480 C   0  0  0  0  0  0  0  0  0  0  0  0
   22.1040  -38.4620  -14.6800 C   0  0  0  0  0  1  0  0  0  0  0  0
   21.7660  -36.0060  -15.1150 N   0  0  0  0  0  0  0  0  0  0  0  0
   21.9850  -35.4670  -13.8320 C   0  0  0  0  0  0  0  0  0  0  0  0
   21.4070  -36.1490  -12.3460 S   0  0  0  0  0  0  0  0  0  0  0  0
   22.0280  -34.8020  -11.4340 C   0  0  0  0  0  0  0  0  0  0  0  0
   21.8480  -34.7760   -9.9500 C   0  0  0  0  0  1  0  0  0  0  0  0
   22.6310  -33.8600  -12.2430 C   0  0  0  0  0  0  0  0  0  0  0  0
   23.1930  -32.5700  -11.6990 C   0  0  0  0  0  1  0  0  0  0  0  0
   22.6380  -34.2700  -13.6240 C   0  0  0  0  0  0  0  0  0  0  0  0
   23.3000  -33.4810  -14.7160 C   0  0  0  0  0  0  0  0  0  0  0  0
   24.6460  -32.9220  -14.4590 C   0  0  0  0  0  0  0  0  0  0  0  0
   25.6090  -33.6920  -13.7670 C   0  0  0  0  0  3  0  0  0  0  0  0
   26.8820  -33.1570  -13.4890 C   0  0  0  0  0  3  0  0  0  0  0  0
   27.2010  -31.8570  -13.9140 C   0  0  0  0  0  0  0  0  0  0  0  0
   28.7490  -31.1720  -13.5970 Cl  0  0  0  0  0  0  0  0  0  0  0  0
   26.2580  -31.1060  -14.6260 C   0  0  0  0  0  3  0  0  0  0  0  0
   24.9770  -31.6230  -14.8980 C   0  0  0  0  0  3  0  0  0  0  0  0
  2  1  2  0
  3 47  1  0
  3  5  1  0
  5  1  1  0
  5  4  1  0
  6  3  1  0
  6  2  1  0
  7  6  1  0
  8  2  1  0
  8 12  1  0
  9 15  1  0
  9 10  1  0
 10 11  2  0
 12 10  1  0
 12 14  1  0
 13  9  1  0
 15 21  1  0
 16 24  1  0
 16 17  1  0
 17 18  1  0
 18 41  1  0
 19 18  1  0
 20 19  1  0
 20 16  1  0
 21 20  1  0
 22 21  2  0
 23 26  1  0
 24 23  1  0
 25 24  2  0
 27 33  1  0
 27 23  1  0
 28 39  1  0
 28 29  1  0
 30 29  2  0
 31 28  2  0
 32 31  1  0
 32 33  2  0
 33 30  1  0
 34 35  1  0
 35 39  2  0
 35 36  1  0
 36 37  1  0
 38 37  1  0
 39 38  1  0
 40 36  1  0
 42 41  1  0
 43 46  1  1
 43 15  1  0
 44 43  1  0
 45 43  1  0
 48 47  1  0
 48 49  1  0
 50 54  1  0
 50 48  1  0
 51 50  2  0
 52 53  2  0
 54 52  1  0
 55 54  1  0
 56 52  1  0
 57 56  1  0
 57 58  1  0
 58 72  2  0
 59 57  1  0
 59 64  1  0
 60 61  1  0
 60 59  2  0
 61 62  2  0
 62 64  1  0
 62 63  1  0
 64 65  1  0
 65 71  2  0
 65 66  1  0
 66 67  1  0
 67 68  1  0
 69 70  1  0
 69 67  2  0
 71 69  1  0
 72 73  1  0
 72 71  1  0
 73 74  1  0
 74 75  2  0
 76 77  1  0
 76 75  1  0
 78 76  2  0
 79 78  1  0
 79 73  2  0
M  ISO  4  10 101  12 101  52 100  54 100
M  END
>  <TORSDO>  (151) 
F 17

>  <SCORE>  (151) 
-12.929

>  <name>  (151) 
150

>  <ligand_id>  (151) 
150

>  <original_smiles>  (151) 
[H]OC1([H])C([H])([H])N(C(=O)C([H])(N([H])C(=O)N([H])C([H])([H])c2c([H])n(C([H])([H])[H])c(C([H])([H])N([H])C(=S)N([H])C(=O)C([H])([H])C3([H])N=C(c4c([H])c([H])c(Cl)c([H])c4[H])c4c(sc(C([H])([H])[H])c4C([H])([H])[H])-n4c(C([H])([H])[H])nnc43)[n+]2[H])C(C([H])([H])[H])(C([H])([H])[H])C([H])([H])[H])C([H])(C(=O)N([H])C([H])([H])c2c([H])c([H])c(C3=C(C([H])([H])[H])N([H])C([H])([H])S3)c([H])c2[H])C1([H])[H]

>  <smiles>  (151) 
[H]OC1([H])C([H])([H])N(C(=O)C([H])(N([H])C(=O)N([H])C([H])([H])c2c([H])n(C([H])([H])[H])c(C([H])([H])N([H])C(=S)N([H])C(=O)C([H])([H])C3([H])N=C(c4c([H])c([H])c(Cl)c([H])c4[H])c4c(sc(C([H])([H])[H])c4C([H])([H])[H])-n4c(C([H])([H])[H])nnc43)[n+]2[H])C(C([H])([H])[H])(C([H])([H])[H])C([H])([H])[H])C([H])(C(=O)N([H])C([H])([H])c2c([H])c([H])c(C3=C(C([H])([H])[H])N([H])C([H])([H])S3)c([H])c2[H])C1([H])[H]

$$$$
151:0:0
     RDKit          3D

 79 85  0  0  1  0  0  0  0  0999 V2000
   25.7020  -27.0230  -14.9680 N   0  0  0  0  0  4  0  0  0  0  0  0
   25.5850  -27.6240  -14.1660 H   0  0  0  0  0  0  0  0  0  0  0  0
   24.9950  -26.3040  -14.8300 H   0  0  0  0  0  0  0  0  0  0  0  0
   25.9570  -24.5150  -15.5380 N   0  0  0  0  0  0  0  0  0  0  0  0
   26.7920  -25.0320  -14.6260 C   0  0  0  0  0  0  0  0  0  0  0  0
   27.2170  -24.3900  -13.6660 O   0  0  0  0  0  0  0  0  0  0  0  0
   27.0490  -26.3360  -14.8070 N   0  0  0  0  0  0  0  0  0  0  0  0
   25.9520  -24.9310  -16.4630 H   0  0  0  0  0  0  0  0  0  0  0  0
   27.6800  -26.7950  -14.1680 H   0  0  0  0  0  0  0  0  0  0  0  0
   24.9670  -23.4620  -15.3210 C   0  0  0  0  0  3  0  0  0  0  0  0
   21.8360  -23.8770  -12.9580 C   0  0  0  0  0  3  0  0  0  0  0  0
   21.3310  -22.6690  -12.1520 C   0  0  0  0  0  2  0  0  0  0  0  0
   22.5690  -21.8270  -11.9230 C   0  0  0  0  0  3  0  0  0  0  0  0
   23.4590  -22.1000  -13.1350 C   0  0  0  0  0  2  0  0  0  0  0  0
   23.0260  -23.3900  -13.6850 N   0  0  0  0  0  0  0  0  0  0  0  0
   23.7230  -24.0930  -14.6150 C   0  0  0  0  0  0  0  0  0  0  0  0
   23.4650  -25.2780  -14.8760 O   0  0  0  0  0  0  0  0  0  0  0  0
   19.9070  -25.3350  -13.2740 N   0  0  0  0  0  0  0  0  0  0  0  0
   20.6890  -24.4080  -13.8350 C   0  0  0  0  0  0  0  0  0  0  0  0
   20.4880  -23.9440  -14.9590 O   0  0  0  0  0  0  0  0  0  0  0  0
   20.1530  -25.6700  -12.3540 H   0  0  0  0  0  0  0  0  0  0  0  0
   18.6570  -25.8330  -13.8360 C   0  0  0  0  0  2  0  0  0  0  0  0
   15.2180  -23.3660  -12.8140 C   0  0  0  0  0  0  0  0  0  0  0  0
   16.2460  -23.5730  -11.8720 C   0  0  0  0  0  3  0  0  0  0  0  0
   17.3590  -24.3660  -12.1990 C   0  0  0  0  0  3  0  0  0  0  0  0
   15.3180  -23.9580  -14.0920 C   0  0  0  0  0  3  0  0  0  0  0  0
   16.4340  -24.7510  -14.4190 C   0  0  0  0  0  3  0  0  0  0  0  0
   17.4610  -24.9610  -13.4750 C   0  0  0  0  0  0  0  0  0  0  0  0
   12.1200  -23.8860  -13.5560 C   0  0  0  0  0  1  0  0  0  0  0  0
   12.7330  -22.7680  -12.7360 C   0  0  0  0  0  0  0  0  0  0  0  0
   11.8810  -21.8500  -12.1570 N   0  0  0  0  0  0  0  0  0  0  0  0
   12.4730  -20.9290  -11.1930 C   0  0  0  0  0  2  0  0  0  0  0  0
   14.2540  -21.1500  -11.4500 S   0  0  0  0  0  0  0  0  0  0  0  0
   14.0250  -22.5960  -12.4220 C   0  0  0  0  0  0  0  0  0  0  0  0
   10.8690  -21.9180  -12.2130 H   0  0  0  0  0  0  0  0  0  0  0  0
   23.2420  -22.2500  -10.7480 O   0  0  0  0  0  0  0  0  0  0  0  0
   23.4590  -23.1720  -10.8370 H   0  0  0  0  0  0  0  0  0  0  0  0
   24.6490  -22.8330  -16.7230 C   0  0  1  0  0  0  0  0  0  0  0  0
   25.9410  -22.1890  -17.2780 C   0  0  0  0  0  1  0  0  0  0  0  0
   24.1290  -23.8470  -17.7710 C   0  0  0  0  0  1  0  0  0  0  0  0
   23.5960  -21.7130  -16.6060 C   0  0  0  0  0  1  0  0  0  0  0  0
   25.4540  -27.7610  -16.2070 O   0  0  0  0  0  0  0  0  0  0  0  0
   25.5470  -27.1190  -17.3890 C   0  0  0  0  0  0  0  0  0  0  0  0
   26.2420  -26.1320  -17.6250 O   0  0  0  0  0  0  0  0  0  0  0  0
   24.6520  -27.7230  -18.4640 C   0  0  0  0  0  2  0  0  0  0  0  0
   22.4600  -28.8100  -18.3710 C   0  0  0  0  0  0  0  0  0  0  0  0
   23.2880  -27.8550  -17.9620 N   0  0  0  0  0  0  0  0  0  0  0  0
   21.3190  -28.8640  -17.6830 N   0  0  0  0  0  0  0  0  0  0  0  0
   22.7290  -29.6010  -19.2780 O   0  0  0  0  0  0  0  0  0  0  0  0
   22.9810  -27.2200  -17.2410 H   0  0  0  0  0  0  0  0  0  0  0  0
   21.0660  -28.3240  -16.8660 H   0  0  0  0  0  0  0  0  0  0  0  0
   20.3280  -30.7940  -16.7810 C   0  0  0  0  0  0  0  0  0  0  0  0
   20.1820  -30.3460  -15.6390 O   0  0  0  0  0  0  0  0  0  0  0  0
   20.5280  -30.0100  -17.8450 N   0  0  0  0  0  0  0  0  0  0  0  0
   20.7330  -30.4200  -18.7500 H   0  0  0  0  0  0  0  0  0  0  0  0
   20.3820  -32.2990  -17.0510 C   0  0  0  0  0  2  0  0  0  0  0  0
   20.9810  -33.1290  -15.8880 C   0  0  0  0  0  3  0  0  0  0  0  0
   22.3370  -32.6650  -15.5740 N   0  0  0  0  0  0  0  0  0  0  0  0
   21.0030  -34.6200  -16.1740 C   0  0  0  0  0  0  0  0  0  0  0  0
   20.7340  -35.2140  -17.3440 N   0  0  0  0  0  0  0  0  0  0  0  0
   20.9600  -36.5610  -17.1400 N   0  0  0  0  0  0  0  0  0  0  0  0
   21.3580  -36.6750  -15.8680 C   0  0  0  0  0  0  0  0  0  0  0  0
   21.7670  -37.9750  -15.2470 C   0  0  0  0  0  1  0  0  0  0  0  0
   21.3800  -35.4910  -15.2190 N   0  0  0  0  0  0  0  0  0  0  0  0
   21.6960  -35.1780  -13.8830 C   0  0  0  0  0  0  0  0  0  0  0  0
   21.2320  -36.1150  -12.5000 S   0  0  0  0  0  0  0  0  0  0  0  0
   21.9150  -34.9350  -11.4180 C   0  0  0  0  0  0  0  0  0  0  0  0
   21.8400  -35.1630   -9.9410 C   0  0  0  0  0  1  0  0  0  0  0  0
   22.4550  -33.8610  -12.0940 C   0  0  0  0  0  0  0  0  0  0  0  0
   23.0480  -32.6730  -11.3800 C   0  0  0  0  0  1  0  0  0  0  0  0
   22.3610  -34.0250  -13.5230 C   0  0  0  0  0  0  0  0  0  0  0  0
   22.9380  -33.0500  -14.5080 C   0  0  0  0  0  0  0  0  0  0  0  0
   24.2980  -32.5190  -14.2550 C   0  0  0  0  0  0  0  0  0  0  0  0
   25.3040  -33.3750  -13.7530 C   0  0  0  0  0  3  0  0  0  0  0  0
   26.5910  -32.8760  -13.4770 C   0  0  0  0  0  3  0  0  0  0  0  0
   26.8770  -31.5200  -13.7050 C   0  0  0  0  0  0  0  0  0  0  0  0
   28.4410  -30.8780  -13.3720 Cl  0  0  0  0  0  0  0  0  0  0  0  0
   25.8840  -30.6750  -14.2150 C   0  0  0  0  0  3  0  0  0  0  0  0
   24.5920  -31.1600  -14.4940 C   0  0  0  0  0  3  0  0  0  0  0  0
  1  3  1  0
  1  7  1  0
  1  2  1  0
  4 10  1  0
  4  5  1  0
  5  6  2  0
  7  5  1  0
  7  9  1  0
  8  4  1  0
 10 16  1  0
 11 19  1  0
 11 12  1  0
 12 13  1  0
 13 36  1  0
 14 13  1  0
 15 14  1  0
 15 11  1  0
 16 15  1  0
 17 16  2  0
 18 21  1  0
 19 18  1  0
 20 19  2  0
 22 28  1  0
 22 18  1  0
 23 34  1  0
 23 24  1  0
 25 24  2  0
 26 23  2  0
 27 26  1  0
 27 28  2  0
 28 25  1  0
 29 30  1  0
 30 34  2  0
 30 31  1  0
 31 32  1  0
 33 32  1  0
 34 33  1  0
 35 31  1  0
 37 36  1  0
 38 41  1  1
 38 10  1  0
 39 38  1  0
 40 38  1  0
 42  1  1  0
 43 42  1  0
 44 43  2  0
 45 47  1  0
 45 43  1  0
 46 47  1  0
 46 48  1  0
 47 50  1  0
 48 51  1  0
 49 46  2  0
 52 53  2  0
 54 48  1  0
 54 52  1  0
 55 54  1  0
 56 52  1  0
 57 56  1  0
 57 58  1  0
 58 72  2  0
 59 57  1  0
 59 64  1  0
 60 61  1  0
 60 59  2  0
 61 62  2  0
 62 63  1  0
 62 64  1  0
 64 65  1  0
 65 71  2  0
 65 66  1  0
 66 67  1  0
 67 68  1  0
 69 67  2  0
 69 70  1  0
 71 69  1  0
 72 73  1  0
 72 71  1  0
 73 74  1  0
 74 75  2  0
 76 75  1  0
 76 77  1  0
 78 76  2  0
 79 73  2  0
 79 78  1  0
M  ISO  4   5 101   7 101  52 100  54 100
M  END
>  <TORSDO>  (152) 
F 17

>  <SCORE>  (152) 
-12.983

>  <name>  (152) 
151

>  <ligand_id>  (152) 
151

>  <original_smiles>  (152) 
[H]OC1([H])C([H])([H])N(C(=O)C([H])(N([H])C(=O)N([H])[N+]([H])([H])OC(=O)C([H])([H])N([H])C(=O)N([H])N([H])C(=O)C([H])([H])C2([H])N=C(c3c([H])c([H])c(Cl)c([H])c3[H])c3c(sc(C([H])([H])[H])c3C([H])([H])[H])-n3c(C([H])([H])[H])nnc32)C(C([H])([H])[H])(C([H])([H])[H])C([H])([H])[H])C([H])(C(=O)N([H])C([H])([H])c2c([H])c([H])c(C3=C(C([H])([H])[H])N([H])C([H])([H])S3)c([H])c2[H])C1([H])[H]

>  <smiles>  (152) 
[H]OC1([H])C([H])([H])N(C(=O)C([H])(N([H])C(=O)N([H])[N+]([H])([H])OC(=O)C([H])([H])N([H])C(=O)N([H])N([H])C(=O)C([H])([H])C2([H])N=C(c3c([H])c([H])c(Cl)c([H])c3[H])c3c(sc(C([H])([H])[H])c3C([H])([H])[H])-n3c(C([H])([H])[H])nnc32)C(C([H])([H])[H])(C([H])([H])[H])C([H])([H])[H])C([H])(C(=O)N([H])C([H])([H])c2c([H])c([H])c(C3=C(C([H])([H])[H])N([H])C([H])([H])S3)c([H])c2[H])C1([H])[H]

$$$$
152:0:0
     RDKit          3D

 75 83  0  0  1  0  0  0  0  0999 V2000
   25.1500  -29.9870  -17.7000 C   0  0  0  0  0  2  0  0  0  0  0  0
   23.6820  -30.2800  -17.9330 C   0  0  0  0  0  2  0  0  0  0  0  0
   27.2190  -27.0040  -18.0620 C   0  0  0  0  0  2  0  0  0  0  0  0
   25.3710  -28.5140  -17.9970 C   0  0  0  0  0  3  0  0  0  0  0  0
   24.5420  -27.6630  -16.9720 C   0  0  0  0  0  3  0  0  0  0  0  0
   22.8540  -29.5270  -16.8810 C   0  0  0  0  0  3  0  0  0  0  0  0
   26.5420  -26.8240  -15.8440 C   0  0  0  0  0  3  0  0  0  0  0  0
   26.7770  -28.3150  -17.9220 O   0  0  0  0  0  0  0  0  0  0  0  0
   26.7150  -26.1670  -17.0690 O   0  0  0  0  0  0  0  0  0  0  0  0
   23.1670  -28.1210  -16.8840 O   0  0  0  0  0  0  0  0  0  0  0  0
   25.2300  -27.4180  -15.7300 O   0  0  0  0  0  0  0  0  0  0  0  0
   21.5050  -29.8060  -17.2330 O   0  0  0  0  0  0  0  0  0  0  0  0
   20.7490  -30.5330  -16.3320 C   0  0  0  0  0  0  0  0  0  0  0  0
   20.2370  -30.0400  -15.3260 O   0  0  0  0  0  0  0  0  0  0  0  0
   20.6550  -32.0560  -16.5950 C   0  0  0  0  0  2  0  0  0  0  0  0
   21.1810  -32.8780  -15.3820 C   0  0  0  0  0  3  0  0  0  0  0  0
   22.5880  -32.5340  -15.1860 N   0  0  0  0  0  0  0  0  0  0  0  0
   21.0350  -34.3930  -15.4800 C   0  0  0  0  0  0  0  0  0  0  0  0
   20.6190  -35.0930  -16.5420 N   0  0  0  0  0  0  0  0  0  0  0  0
   20.7450  -36.4250  -16.1890 N   0  0  0  0  0  0  0  0  0  0  0  0
   21.2340  -36.4280  -14.9440 C   0  0  0  0  0  0  0  0  0  0  0  0
   21.5860  -37.6810  -14.1990 C   0  0  0  0  0  1  0  0  0  0  0  0
   21.4040  -35.1830  -14.4470 N   0  0  0  0  0  0  0  0  0  0  0  0
   21.8450  -34.7560  -13.1780 C   0  0  0  0  0  0  0  0  0  0  0  0
   21.4160  -35.4900  -11.6640 S   0  0  0  0  0  0  0  0  0  0  0  0
   22.2740  -34.2630  -10.7750 C   0  0  0  0  0  0  0  0  0  0  0  0
   22.2970  -34.3150   -9.2800 C   0  0  0  0  0  1  0  0  0  0  0  0
   22.8460  -33.3240  -11.6070 C   0  0  0  0  0  0  0  0  0  0  0  0
   23.5850  -32.1190  -11.0820 C   0  0  0  0  0  1  0  0  0  0  0  0
   22.6310  -33.6390  -12.9960 C   0  0  0  0  0  0  0  0  0  0  0  0
   23.2170  -32.8390  -14.1160 C   0  0  0  0  0  0  0  0  0  0  0  0
   24.6230  -32.3950  -14.0120 C   0  0  0  0  0  0  0  0  0  0  0  0
   25.6200  -33.3010  -13.5910 C   0  0  0  0  0  3  0  0  0  0  0  0
   26.9560  -32.8730  -13.4740 C   0  0  0  0  0  3  0  0  0  0  0  0
   27.3020  -31.5470  -13.7920 C   0  0  0  0  0  0  0  0  0  0  0  0
   28.9340  -31.0110  -13.6580 Cl  0  0  0  0  0  0  0  0  0  0  0  0
   26.3110  -30.6420  -14.1990 C   0  0  0  0  0  3  0  0  0  0  0  0
   24.9730  -31.0580  -14.2910 C   0  0  0  0  0  3  0  0  0  0  0  0
   27.0500  -26.1090  -14.6930 O   0  0  0  0  0  0  0  0  0  0  0  0
   25.9790  -24.1970  -15.3520 N   0  0  0  0  0  0  0  0  0  0  0  0
   26.9020  -24.7170  -14.4900 C   0  0  0  0  0  0  0  0  0  0  0  0
   27.4000  -24.0790  -13.5480 O   0  0  0  0  0  0  0  0  0  0  0  0
   25.7280  -24.8230  -16.1060 H   0  0  0  0  0  0  0  0  0  0  0  0
   25.0170  -23.1430  -15.0890 C   0  0  0  0  0  3  0  0  0  0  0  0
   21.8420  -23.7210  -12.8340 C   0  0  0  0  0  3  0  0  0  0  0  0
   21.2450  -22.5480  -12.0410 C   0  0  0  0  0  2  0  0  0  0  0  0
   22.4260  -21.6420  -11.7630 C   0  0  0  0  0  3  0  0  0  0  0  0
   23.3750  -21.8590  -12.9440 C   0  0  0  0  0  2  0  0  0  0  0  0
   23.0300  -23.1670  -13.5140 N   0  0  0  0  0  0  0  0  0  0  0  0
   23.7740  -23.8280  -14.4360 C   0  0  0  0  0  0  0  0  0  0  0  0
   23.5240  -25.0000  -14.7440 O   0  0  0  0  0  0  0  0  0  0  0  0
   20.0240  -25.2990  -13.2270 N   0  0  0  0  0  0  0  0  0  0  0  0
   20.7620  -24.3160  -13.7530 C   0  0  0  0  0  0  0  0  0  0  0  0
   20.5690  -23.8560  -14.8810 O   0  0  0  0  0  0  0  0  0  0  0  0
   20.2620  -25.6270  -12.3010 H   0  0  0  0  0  0  0  0  0  0  0  0
   18.8290  -25.8690  -13.8380 C   0  0  0  0  0  2  0  0  0  0  0  0
   15.2310  -23.5520  -13.0400 C   0  0  0  0  0  0  0  0  0  0  0  0
   16.2320  -23.6700  -12.0530 C   0  0  0  0  0  3  0  0  0  0  0  0
   17.3960  -24.4140  -12.3080 C   0  0  0  0  0  3  0  0  0  0  0  0
   15.4110  -24.1850  -14.2880 C   0  0  0  0  0  3  0  0  0  0  0  0
   16.5780  -24.9300  -14.5430 C   0  0  0  0  0  3  0  0  0  0  0  0
   17.5770  -25.0490  -13.5550 C   0  0  0  0  0  0  0  0  0  0  0  0
   12.1920  -24.2870  -13.8390 C   0  0  0  0  0  1  0  0  0  0  0  0
   12.7150  -23.0960  -13.0600 C   0  0  0  0  0  0  0  0  0  0  0  0
   11.7960  -22.2010  -12.5530 N   0  0  0  0  0  0  0  0  0  0  0  0
   12.3050  -21.2010  -11.6210 C   0  0  0  0  0  2  0  0  0  0  0  0
   14.1030  -21.3320  -11.8170 S   0  0  0  0  0  0  0  0  0  0  0  0
   13.9850  -22.8350  -12.7200 C   0  0  0  0  0  0  0  0  0  0  0  0
   10.7910  -22.3310  -12.6330 H   0  0  0  0  0  0  0  0  0  0  0  0
   23.0770  -22.0360  -10.5660 O   0  0  0  0  0  0  0  0  0  0  0  0
   23.3640  -22.9390  -10.6610 H   0  0  0  0  0  0  0  0  0  0  0  0
   24.7200  -22.4670  -16.4740 C   0  0  1  0  0  0  0  0  0  0  0  0
   25.9810  -21.6950  -16.9270 C   0  0  0  0  0  1  0  0  0  0  0  0
   24.3560  -23.4820  -17.5880 C   0  0  0  0  0  1  0  0  0  0  0  0
   23.5710  -21.4430  -16.3730 C   0  0  0  0  0  1  0  0  0  0  0  0
  2  1  1  0
  2  6  1  0
  3  8  1  0
  3  9  1  0
  4  8  1  0
  4  1  1  0
  4  5  1  0
  5 10  1  0
  5 11  1  0
  6 12  1  0
  7 11  1  0
  7 39  1  0
  9  7  1  0
 10  6  1  0
 12 13  1  0
 13 14  2  0
 15 13  1  0
 16 15  1  0
 16 17  1  0
 17 31  2  0
 18 16  1  0
 18 23  1  0
 19 20  1  0
 19 18  2  0
 20 21  2  0
 21 23  1  0
 21 22  1  0
 23 24  1  0
 24 30  2  0
 24 25  1  0
 25 26  1  0
 26 27  1  0
 28 29  1  0
 28 26  2  0
 30 28  1  0
 31 32  1  0
 31 30  1  0
 32 33  1  0
 33 34  2  0
 35 36  1  0
 35 34  1  0
 37 35  2  0
 38 37  1  0
 38 32  2  0
 39 41  1  0
 40 44  1  0
 40 41  1  0
 41 42  2  0
 43 40  1  0
 44 50  1  0
 45 53  1  0
 45 46  1  0
 46 47  1  0
 47 70  1  0
 48 47  1  0
 49 48  1  0
 49 45  1  0
 50 49  1  0
 51 50  2  0
 52 55  1  0
 53 52  1  0
 54 53  2  0
 56 62  1  0
 56 52  1  0
 57 68  1  0
 57 58  1  0
 59 58  2  0
 60 57  2  0
 61 60  1  0
 61 62  2  0
 62 59  1  0
 63 64  1  0
 64 68  2  0
 64 65  1  0
 65 66  1  0
 67 66  1  0
 68 67  1  0
 69 65  1  0
 71 70  1  0
 72 75  1  1
 72 44  1  0
 73 72  1  0
 74 72  1  0
M  ISO  4  12 100  13 100  39 101  41 101
M  END
>  <TORSDO>  (153) 
F 15

>  <SCORE>  (153) 
-8.532

>  <name>  (153) 
152

>  <ligand_id>  (153) 
152

>  <original_smiles>  (153) 
[H]OC1([H])C([H])([H])N(C(=O)C([H])(N([H])C(=O)OC2([H])OC([H])([H])OC3([H])C([H])(O2)OC([H])(OC(=O)C([H])([H])C2([H])N=C(c4c([H])c([H])c(Cl)c([H])c4[H])c4c(sc(C([H])([H])[H])c4C([H])([H])[H])-n4c(C([H])([H])[H])nnc42)C([H])([H])C3([H])[H])C(C([H])([H])[H])(C([H])([H])[H])C([H])([H])[H])C([H])(C(=O)N([H])C([H])([H])c2c([H])c([H])c(C3=C(C([H])([H])[H])N([H])C([H])([H])S3)c([H])c2[H])C1([H])[H]

>  <smiles>  (153) 
[H]OC1([H])C([H])([H])N(C(=O)C([H])(N([H])C(=O)OC2([H])OC([H])([H])OC3([H])C([H])(O2)OC([H])(OC(=O)C([H])([H])C2([H])N=C(c4c([H])c([H])c(Cl)c([H])c4[H])c4c(sc(C([H])([H])[H])c4C([H])([H])[H])-n4c(C([H])([H])[H])nnc42)C([H])([H])C3([H])[H])C(C([H])([H])[H])(C([H])([H])[H])C([H])([H])[H])C([H])(C(=O)N([H])C([H])([H])c2c([H])c([H])c(C3=C(C([H])([H])[H])N([H])C([H])([H])S3)c([H])c2[H])C1([H])[H]

$$$$
153:0:0
     RDKit          3D

 77 83  0  0  1  0  0  0  0  0999 V2000
   27.0050  -27.2960  -15.3240 C   0  0  0  0  0  3  0  0  0  0  0  0
   28.4650  -28.3000  -16.2290 Br  0  0  0  0  0  0  0  0  0  0  0  0
   25.8570  -24.6220  -15.2750 N   0  0  0  0  0  0  0  0  0  0  0  0
   26.8540  -24.9940  -14.4790 C   0  0  0  0  0  0  0  0  0  0  0  0
   27.1830  -24.3940  -13.4550 O   0  0  0  0  0  0  0  0  0  0  0  0
   27.5650  -25.9860  -15.0120 N   0  0  0  0  0  0  0  0  0  0  0  0
   25.7040  -25.1830  -16.0990 H   0  0  0  0  0  0  0  0  0  0  0  0
   28.4960  -26.0580  -14.6300 H   0  0  0  0  0  0  0  0  0  0  0  0
   24.9220  -23.5220  -15.0980 C   0  0  0  0  0  3  0  0  0  0  0  0
   21.7820  -23.7710  -12.7550 C   0  0  0  0  0  3  0  0  0  0  0  0
   21.3040  -22.5270  -11.9910 C   0  0  0  0  0  2  0  0  0  0  0  0
   22.5610  -21.7090  -11.7800 C   0  0  0  0  0  3  0  0  0  0  0  0
   23.4540  -22.0460  -12.9740 C   0  0  0  0  0  2  0  0  0  0  0  0
   22.9900  -23.3410  -13.4850 N   0  0  0  0  0  0  0  0  0  0  0  0
   23.6560  -24.0930  -14.3990 C   0  0  0  0  0  0  0  0  0  0  0  0
   23.3090  -25.2500  -14.6650 O   0  0  0  0  0  0  0  0  0  0  0  0
   19.8520  -25.2310  -13.0530 N   0  0  0  0  0  0  0  0  0  0  0  0
   20.6320  -24.3070  -13.6230 C   0  0  0  0  0  0  0  0  0  0  0  0
   20.4260  -23.8510  -14.7500 O   0  0  0  0  0  0  0  0  0  0  0  0
   20.1050  -25.5610  -12.1310 H   0  0  0  0  0  0  0  0  0  0  0  0
   18.6000  -25.7300  -13.6050 C   0  0  0  0  0  2  0  0  0  0  0  0
   15.1810  -23.2200  -12.6290 C   0  0  0  0  0  0  0  0  0  0  0  0
   16.2220  -23.3960  -11.6930 C   0  0  0  0  0  3  0  0  0  0  0  0
   17.3280  -24.2030  -12.0060 C   0  0  0  0  0  3  0  0  0  0  0  0
   15.2630  -23.8570  -13.8850 C   0  0  0  0  0  3  0  0  0  0  0  0
   16.3740  -24.6640  -14.1990 C   0  0  0  0  0  3  0  0  0  0  0  0
   17.4110  -24.8430  -13.2610 C   0  0  0  0  0  0  0  0  0  0  0  0
   12.0690  -23.7940  -13.2590 C   0  0  0  0  0  1  0  0  0  0  0  0
   12.6960  -22.6300  -12.5170 C   0  0  0  0  0  0  0  0  0  0  0  0
   11.8540  -21.6860  -11.9670 N   0  0  0  0  0  0  0  0  0  0  0  0
   12.4650  -20.7100  -11.0720 C   0  0  0  0  0  2  0  0  0  0  0  0
   14.2410  -20.9380  -11.3630 S   0  0  0  0  0  0  0  0  0  0  0  0
   13.9950  -22.4350  -12.2470 C   0  0  0  0  0  0  0  0  0  0  0  0
   10.8420  -21.7630  -11.9900 H   0  0  0  0  0  0  0  0  0  0  0  0
   23.2170  -22.1120  -10.5870 O   0  0  0  0  0  0  0  0  0  0  0  0
   23.4310  -23.0370  -10.6570 H   0  0  0  0  0  0  0  0  0  0  0  0
   24.6430  -22.9120  -16.5220 C   0  0  1  0  0  0  0  0  0  0  0  0
   25.9450  -22.2620  -17.0490 C   0  0  0  0  0  1  0  0  0  0  0  0
   24.1790  -23.9600  -17.5630 C   0  0  0  0  0  1  0  0  0  0  0  0
   23.5780  -21.7970  -16.4590 C   0  0  0  0  0  1  0  0  0  0  0  0
   24.8090  -27.7840  -15.8750 N   0  0  0  0  0  2  0  0  0  0  0  0
   25.8700  -27.2750  -16.2980 N   0  0  0  0  0  2  0  0  0  0  0  0
   23.6380  -27.7350  -16.8000 C   0  0  0  0  0  2  0  0  0  0  0  0
   23.2040  -29.1140  -17.2460 C   0  0  0  0  0  0  0  0  0  0  0  0
   24.1490  -30.0240  -17.5660 N   0  0  0  0  0  4  0  0  0  0  0  0
   21.8850  -29.4130  -17.3370 N   0  0  0  0  0  0  0  0  0  0  0  0
   25.1240  -29.7630  -17.5560 H   0  0  0  0  0  0  0  0  0  0  0  0
   23.9410  -30.9950  -17.7400 H   0  0  0  0  0  0  0  0  0  0  0  0
   21.1650  -28.7650  -17.0350 H   0  0  0  0  0  0  0  0  0  0  0  0
   20.7570  -31.4400  -16.9860 C   0  0  0  0  0  0  0  0  0  0  0  0
   20.1410  -30.9990  -16.0100 O   0  0  0  0  0  0  0  0  0  0  0  0
   21.4550  -30.6550  -17.8220 N   0  0  0  0  0  0  0  0  0  0  0  0
   22.0320  -30.9320  -18.6030 H   0  0  0  0  0  0  0  0  0  0  0  0
   20.8750  -32.9560  -17.2050 C   0  0  0  0  0  2  0  0  0  0  0  0
   21.3930  -33.6820  -15.9340 C   0  0  0  0  0  3  0  0  0  0  0  0
   22.7190  -33.1650  -15.5840 N   0  0  0  0  0  0  0  0  0  0  0  0
   21.4530  -35.1960  -16.0510 C   0  0  0  0  0  0  0  0  0  0  0  0
   21.2720  -35.9210  -17.1610 N   0  0  0  0  0  0  0  0  0  0  0  0
   21.5120  -37.2320  -16.7940 N   0  0  0  0  0  0  0  0  0  0  0  0
   21.8330  -37.1940  -15.4980 C   0  0  0  0  0  0  0  0  0  0  0  0
   22.2310  -38.4080  -14.7120 C   0  0  0  0  0  1  0  0  0  0  0  0
   21.7850  -35.9470  -14.9820 N   0  0  0  0  0  0  0  0  0  0  0  0
   22.0100  -35.4860  -13.6700 C   0  0  0  0  0  0  0  0  0  0  0  0
   21.4820  -36.2810  -12.2210 S   0  0  0  0  0  0  0  0  0  0  0  0
   22.0710  -34.9710  -11.2350 C   0  0  0  0  0  0  0  0  0  0  0  0
   21.9100  -35.0390   -9.7500 C   0  0  0  0  0  1  0  0  0  0  0  0
   22.6290  -33.9620  -11.9920 C   0  0  0  0  0  0  0  0  0  0  0  0
   23.1500  -32.6870  -11.3800 C   0  0  0  0  0  1  0  0  0  0  0  0
   22.6280  -34.2840  -13.3970 C   0  0  0  0  0  0  0  0  0  0  0  0
   23.2490  -33.4120  -14.4440 C   0  0  0  0  0  0  0  0  0  0  0  0
   24.5710  -32.8170  -14.1660 C   0  0  0  0  0  0  0  0  0  0  0  0
   25.5990  -33.6000  -13.5980 C   0  0  0  0  0  3  0  0  0  0  0  0
   26.8490  -33.0220  -13.3050 C   0  0  0  0  0  3  0  0  0  0  0  0
   27.0780  -31.6650  -13.5930 C   0  0  0  0  0  0  0  0  0  0  0  0
   28.6020  -30.9460  -13.2290 Cl  0  0  0  0  0  0  0  0  0  0  0  0
   26.0580  -30.8970  -14.1770 C   0  0  0  0  0  3  0  0  0  0  0  0
   24.8030  -31.4590  -14.4570 C   0  0  0  0  0  3  0  0  0  0  0  0
  1  2  1  0
  1  6  1  0
  3  9  1  0
  3  4  1  0
  4  5  2  0
  6  8  1  0
  6  4  1  0
  7  3  1  0
  9 15  1  0
 10 18  1  0
 10 11  1  0
 11 12  1  0
 12 35  1  0
 13 12  1  0
 14 13  1  0
 14 10  1  0
 15 14  1  0
 16 15  2  0
 17 20  1  0
 18 17  1  0
 19 18  2  0
 21 27  1  0
 21 17  1  0
 22 33  1  0
 22 23  1  0
 24 23  2  0
 25 22  2  0
 26 25  1  0
 26 27  2  0
 27 24  1  0
 28 29  1  0
 29 33  2  0
 29 30  1  0
 30 31  1  0
 32 31  1  0
 33 32  1  0
 34 30  1  0
 36 35  1  0
 37 40  1  1
 37  9  1  0
 38 37  1  0
 39 37  1  0
 42 41  1  0
 42  1  1  0
 43 41  1  0
 44 43  1  0
 45 47  1  0
 45 44  2  0
 46 44  1  0
 46 49  1  0
 48 45  1  0
 50 51  2  0
 52 46  1  0
 52 50  1  0
 53 52  1  0
 54 50  1  0
 55 54  1  0
 55 56  1  0
 56 70  2  0
 57 55  1  0
 57 62  1  0
 58 59  1  0
 58 57  2  0
 59 60  2  0
 60 62  1  0
 60 61  1  0
 62 63  1  0
 63 69  2  0
 63 64  1  0
 64 65  1  0
 65 66  1  0
 67 68  1  0
 67 65  2  0
 69 67  1  0
 70 71  1  0
 70 69  1  0
 71 72  1  0
 72 73  2  0
 74 73  1  0
 74 75  1  0
 76 74  2  0
 77 76  1  0
 77 71  2  0
M  ISO  4   4 101   6 101  50 100  52 100
M  END
>  <TORSDO>  (154) 
F 16

>  <SCORE>  (154) 
-12.645

>  <name>  (154) 
153

>  <ligand_id>  (154) 
153

>  <original_smiles>  (154) 
[H]OC1([H])C([H])([H])N(C(=O)C([H])(N([H])C(=O)N([H])C([H])(Br)N=NC([H])([H])C(N([H])[H])=[N+]([H])N([H])C(=O)C([H])([H])C2([H])N=C(c3c([H])c([H])c(Cl)c([H])c3[H])c3c(sc(C([H])([H])[H])c3C([H])([H])[H])-n3c(C([H])([H])[H])nnc32)C(C([H])([H])[H])(C([H])([H])[H])C([H])([H])[H])C([H])(C(=O)N([H])C([H])([H])c2c([H])c([H])c(C3=C(C([H])([H])[H])N([H])C([H])([H])S3)c([H])c2[H])C1([H])[H]

>  <smiles>  (154) 
[H]OC1([H])C([H])([H])N(C(=O)C([H])(N([H])C(=O)N([H])C([H])(Br)N=NC([H])([H])C(N([H])[H])=[N+]([H])N([H])C(=O)C([H])([H])C2([H])N=C(c3c([H])c([H])c(Cl)c([H])c3[H])c3c(sc(C([H])([H])[H])c3C([H])([H])[H])-n3c(C([H])([H])[H])nnc32)C(C([H])([H])[H])(C([H])([H])[H])C([H])([H])[H])C([H])(C(=O)N([H])C([H])([H])c2c([H])c([H])c(C3=C(C([H])([H])[H])N([H])C([H])([H])S3)c([H])c2[H])C1([H])[H]

$$$$
154:0:0
     RDKit          3D

 80 86  0  0  1  0  0  0  0  0999 V2000
   26.2520  -27.6870  -16.6590 C   0  0  0  0  0  0  0  0  0  0  0  0
   25.3080  -28.0470  -17.4650 N   0  0  0  0  0  2  0  0  0  0  0  0
   27.5320  -27.5910  -17.1410 N   0  0  0  0  0  4  0  0  0  0  0  0
   26.1580  -27.3560  -15.3060 N   0  0  0  0  0  0  0  0  0  0  0  0
   28.3310  -27.3320  -16.5770 H   0  0  0  0  0  0  0  0  0  0  0  0
   27.8010  -27.8080  -18.0940 H   0  0  0  0  0  0  0  0  0  0  0  0
   25.3790  -27.5780  -14.6880 H   0  0  0  0  0  0  0  0  0  0  0  0
   25.9570  -24.7430  -15.3860 N   0  0  0  0  0  0  0  0  0  0  0  0
   26.8260  -25.2000  -14.4870 C   0  0  0  0  0  0  0  0  0  0  0  0
   27.2550  -24.5410  -13.5420 O   0  0  0  0  0  0  0  0  0  0  0  0
   27.0910  -26.5010  -14.6670 N   0  0  0  0  0  0  0  0  0  0  0  0
   25.7740  -25.3830  -16.1390 H   0  0  0  0  0  0  0  0  0  0  0  0
   27.7480  -26.9670  -14.0530 H   0  0  0  0  0  0  0  0  0  0  0  0
   25.0000  -23.6570  -15.2350 C   0  0  0  0  0  3  0  0  0  0  0  0
   21.8950  -23.9960  -12.8430 C   0  0  0  0  0  3  0  0  0  0  0  0
   21.4530  -22.7860  -12.0050 C   0  0  0  0  0  2  0  0  0  0  0  0
   22.7270  -22.0020  -11.7770 C   0  0  0  0  0  3  0  0  0  0  0  0
   23.5890  -22.2880  -13.0050 C   0  0  0  0  0  2  0  0  0  0  0  0
   23.0940  -23.5460  -13.5770 N   0  0  0  0  0  0  0  0  0  0  0  0
   23.7340  -24.2540  -14.5430 C   0  0  0  0  0  0  0  0  0  0  0  0
   23.3740  -25.3960  -14.8710 O   0  0  0  0  0  0  0  0  0  0  0  0
   19.9170  -25.3840  -13.1610 N   0  0  0  0  0  0  0  0  0  0  0  0
   20.7160  -24.4660  -13.7110 C   0  0  0  0  0  0  0  0  0  0  0  0
   20.5080  -23.9650  -14.8190 O   0  0  0  0  0  0  0  0  0  0  0  0
   20.1690  -25.7510  -12.2530 H   0  0  0  0  0  0  0  0  0  0  0  0
   18.6420  -25.8250  -13.7130 C   0  0  0  0  0  2  0  0  0  0  0  0
   15.3230  -23.2180  -12.6490 C   0  0  0  0  0  0  0  0  0  0  0  0
   16.3610  -23.4530  -11.7260 C   0  0  0  0  0  3  0  0  0  0  0  0
   17.4370  -24.2920  -12.0670 C   0  0  0  0  0  3  0  0  0  0  0  0
   15.3720  -23.8260  -13.9210 C   0  0  0  0  0  3  0  0  0  0  0  0
   16.4500  -24.6650  -14.2630 C   0  0  0  0  0  3  0  0  0  0  0  0
   17.4880  -24.9040  -13.3380 C   0  0  0  0  0  0  0  0  0  0  0  0
   12.1860  -23.6680  -13.2580 C   0  0  0  0  0  1  0  0  0  0  0  0
   12.8600  -22.5410  -12.5010 C   0  0  0  0  0  0  0  0  0  0  0  0
   12.0590  -21.5780  -11.9250 N   0  0  0  0  0  0  0  0  0  0  0  0
   12.7130  -20.6430  -11.0170 C   0  0  0  0  0  2  0  0  0  0  0  0
   14.4770  -20.9270  -11.3310 S   0  0  0  0  0  0  0  0  0  0  0  0
   14.1680  -22.3980  -12.2410 C   0  0  0  0  0  0  0  0  0  0  0  0
   11.0440  -21.6180  -11.9390 H   0  0  0  0  0  0  0  0  0  0  0  0
   23.4000  -22.4780  -10.6210 O   0  0  0  0  0  0  0  0  0  0  0  0
   23.5920  -23.4020  -10.7430 H   0  0  0  0  0  0  0  0  0  0  0  0
   24.7150  -23.0720  -16.6640 C   0  0  1  0  0  0  0  0  0  0  0  0
   26.0160  -22.4300  -17.2000 C   0  0  0  0  0  1  0  0  0  0  0  0
   24.2470  -24.1340  -17.6920 C   0  0  0  0  0  1  0  0  0  0  0  0
   23.6490  -21.9570  -16.6140 C   0  0  0  0  0  1  0  0  0  0  0  0
   24.0020  -28.0210  -16.9470 N   0  0  0  0  0  4  0  0  0  0  0  0
   23.5720  -27.1470  -17.2140 H   0  0  0  0  0  0  0  0  0  0  0  0
   24.0490  -28.0920  -15.9440 H   0  0  0  0  0  0  0  0  0  0  0  0
   22.1050  -28.6030  -17.9400 C   0  0  0  0  0  2  0  0  0  0  0  0
   23.1950  -29.0600  -17.4190 N   0  0  0  0  0  2  0  0  0  0  0  0
   21.1000  -29.4060  -18.4550 N   0  0  0  0  0  0  0  0  0  0  0  0
   20.2310  -29.0110  -18.8060 H   0  0  0  0  0  0  0  0  0  0  0  0
   20.7450  -31.5470  -17.4120 C   0  0  0  0  0  0  0  0  0  0  0  0
   20.2460  -31.0390  -16.4030 O   0  0  0  0  0  0  0  0  0  0  0  0
   21.1660  -30.8080  -18.4490 N   0  0  0  0  0  0  0  0  0  0  0  0
   21.5890  -31.2290  -19.2690 H   0  0  0  0  0  0  0  0  0  0  0  0
   20.9540  -33.0640  -17.5070 C   0  0  0  0  0  2  0  0  0  0  0  0
   21.4560  -33.7130  -16.1900 C   0  0  0  0  0  3  0  0  0  0  0  0
   22.7770  -33.1790  -15.8540 N   0  0  0  0  0  0  0  0  0  0  0  0
   21.5150  -35.2300  -16.2410 C   0  0  0  0  0  0  0  0  0  0  0  0
   21.3320  -36.0020  -17.3190 N   0  0  0  0  0  0  0  0  0  0  0  0
   21.5610  -37.2970  -16.8960 N   0  0  0  0  0  0  0  0  0  0  0  0
   21.8750  -37.2060  -15.5990 C   0  0  0  0  0  0  0  0  0  0  0  0
   22.2590  -38.3870  -14.7600 C   0  0  0  0  0  1  0  0  0  0  0  0
   21.8340  -35.9360  -15.1390 N   0  0  0  0  0  0  0  0  0  0  0  0
   22.0540  -35.4190  -13.8470 C   0  0  0  0  0  0  0  0  0  0  0  0
   21.5100  -36.1480  -12.3700 S   0  0  0  0  0  0  0  0  0  0  0  0
   22.1020  -34.8020  -11.4380 C   0  0  0  0  0  0  0  0  0  0  0  0
   21.9300  -34.8060   -9.9510 C   0  0  0  0  0  1  0  0  0  0  0  0
   22.6710  -33.8300  -12.2330 C   0  0  0  0  0  0  0  0  0  0  0  0
   23.1950  -32.5320  -11.6720 C   0  0  0  0  0  1  0  0  0  0  0  0
   22.6760  -34.2100  -13.6230 C   0  0  0  0  0  0  0  0  0  0  0  0
   23.3060  -33.3810  -14.7040 C   0  0  0  0  0  0  0  0  0  0  0  0
   24.6330  -32.7790  -14.4470 C   0  0  0  0  0  0  0  0  0  0  0  0
   25.6450  -33.5390  -13.8180 C   0  0  0  0  0  3  0  0  0  0  0  0
   26.8980  -32.9600  -13.5450 C   0  0  0  0  0  3  0  0  0  0  0  0
   27.1450  -31.6230  -13.9020 C   0  0  0  0  0  0  0  0  0  0  0  0
   28.6740  -30.8990  -13.5690 Cl  0  0  0  0  0  0  0  0  0  0  0  0
   26.1440  -30.8710  -14.5360 C   0  0  0  0  0  3  0  0  0  0  0  0
   24.8890  -31.4420  -14.8140 C   0  0  0  0  0  3  0  0  0  0  0  0
  1  4  1  0
  2 46  1  0
  2  1  1  0
  3  1  2  0
  3  5  1  0
  4  7  1  0
  4 11  1  0
  6  3  1  0
  8 14  1  0
  8  9  1  0
  9 10  2  0
 11  9  1  0
 11 13  1  0
 12  8  1  0
 14 20  1  0
 15 23  1  0
 15 16  1  0
 16 17  1  0
 17 40  1  0
 18 17  1  0
 19 18  1  0
 19 15  1  0
 20 19  1  0
 21 20  2  0
 22 25  1  0
 23 22  1  0
 24 23  2  0
 26 32  1  0
 26 22  1  0
 27 38  1  0
 27 28  1  0
 29 28  2  0
 30 27  2  0
 31 30  1  0
 31 32  2  0
 32 29  1  0
 33 34  1  0
 34 38  2  0
 34 35  1  0
 35 36  1  0
 37 36  1  0
 38 37  1  0
 39 35  1  0
 41 40  1  0
 42 45  1  1
 42 14  1  0
 43 42  1  0
 44 42  1  0
 46 48  1  0
 47 46  1  0
 49 50  1  0
 50 46  1  0
 51 55  1  0
 51 49  1  0
 52 51  1  0
 53 54  2  0
 55 53  1  0
 56 55  1  0
 57 53  1  0
 58 57  1  0
 58 59  1  0
 59 73  2  0
 60 58  1  0
 60 65  1  0
 61 62  1  0
 61 60  2  0
 62 63  2  0
 63 65  1  0
 63 64  1  0
 65 66  1  0
 66 72  2  0
 66 67  1  0
 67 68  1  0
 68 69  1  0
 70 71  1  0
 70 68  2  0
 72 70  1  0
 73 74  1  0
 73 72  1  0
 74 75  1  0
 75 76  2  0
 77 78  1  0
 77 76  1  0
 79 77  2  0
 80 79  1  0
 80 74  2  0
M  ISO  4   9 101  11 101  53 100  55 100
M  END
>  <TORSDO>  (155) 
F 15

>  <SCORE>  (155) 
-14.909

>  <name>  (155) 
154

>  <ligand_id>  (155) 
154

>  <original_smiles>  (155) 
[H]OC1([H])C([H])([H])N(C(=O)C([H])(N([H])C(=O)N([H])N([H])C(=N[N+]([H])([H])N=C([H])N([H])N([H])C(=O)C([H])([H])C2([H])N=C(c3c([H])c([H])c(Cl)c([H])c3[H])c3c(sc(C([H])([H])[H])c3C([H])([H])[H])-n3c(C([H])([H])[H])nnc32)N([H])[H])C(C([H])([H])[H])(C([H])([H])[H])C([H])([H])[H])C([H])(C(=O)N([H])C([H])([H])c2c([H])c([H])c(C3=C(C([H])([H])[H])N([H])C([H])([H])S3)c([H])c2[H])C1([H])[H]

>  <smiles>  (155) 
[H]OC1([H])C([H])([H])N(C(=O)C([H])(N([H])C(=O)N([H])N([H])C(=N[N+]([H])([H])N=C([H])N([H])N([H])C(=O)C([H])([H])C2([H])N=C(c3c([H])c([H])c(Cl)c([H])c3[H])c3c(sc(C([H])([H])[H])c3C([H])([H])[H])-n3c(C([H])([H])[H])nnc32)N([H])[H])C(C([H])([H])[H])(C([H])([H])[H])C([H])([H])[H])C([H])(C(=O)N([H])C([H])([H])c2c([H])c([H])c(C3=C(C([H])([H])[H])N([H])C([H])([H])S3)c([H])c2[H])C1([H])[H]

$$$$
155:0:0
     RDKit          3D

 81 86  0  0  1  0  0  0  0  0999 V2000
   25.0880  -26.2070  -16.3610 C   0  0  0  0  0  2  0  0  0  0  0  0
   23.2140  -26.4720  -16.2390 C   0  0  0  0  0  0  0  0  0  0  0  0
   23.3790  -25.7670  -19.2010 C   0  0  0  0  0  2  0  0  0  0  0  0
   22.3490  -26.1460  -17.8530 C   0  0  0  0  0  3  0  0  0  0  0  0
   25.5260  -25.6680  -18.4990 C   0  0  0  0  0  2  0  0  0  0  0  0
   22.5600  -27.0480  -15.3320 O   0  0  0  0  0  0  0  0  0  0  0  0
   26.5920  -25.5510  -19.1010 O   0  0  0  0  0  0  0  0  0  0  0  0
   20.3790  -26.3850  -18.0410 Br  0  0  0  0  0  0  0  0  0  0  0  0
   26.4490  -24.2650  -15.3570 N   0  0  0  0  0  0  0  0  0  0  0  0
   26.7640  -25.3810  -14.7810 C   0  0  0  0  0  0  0  0  0  0  0  0
   27.5880  -25.3460  -13.8670 O   0  0  0  0  0  0  0  0  0  0  0  0
   26.0800  -26.4120  -15.3360 N   0  0  0  0  0  0  0  0  0  0  0  0
   27.2320  -23.6370  -15.3270 H   0  0  0  0  0  0  0  0  0  0  0  0
   26.0850  -27.2940  -14.8380 H   0  0  0  0  0  0  0  0  0  0  0  0
   25.2440  -23.4880  -15.1690 C   0  0  0  0  0  3  0  0  0  0  0  0
   22.1040  -23.9190  -12.8240 C   0  0  0  0  0  3  0  0  0  0  0  0
   21.5850  -22.7440  -11.9930 C   0  0  0  0  0  2  0  0  0  0  0  0
   22.8290  -21.9200  -11.7130 C   0  0  0  0  0  3  0  0  0  0  0  0
   23.7260  -22.1020  -12.9300 C   0  0  0  0  0  2  0  0  0  0  0  0
   23.2920  -23.3590  -13.5150 N   0  0  0  0  0  0  0  0  0  0  0  0
   24.0600  -24.0820  -14.3330 C   0  0  0  0  0  0  0  0  0  0  0  0
   23.8350  -25.2620  -14.3240 O   0  0  0  0  0  0  0  0  0  0  0  0
   20.1990  -25.4000  -13.2540 N   0  0  0  0  0  0  0  0  0  0  0  0
   20.9810  -24.4370  -13.7550 C   0  0  0  0  0  0  0  0  0  0  0  0
   20.7940  -23.9370  -14.8650 O   0  0  0  0  0  0  0  0  0  0  0  0
   20.4450  -25.7780  -12.3500 H   0  0  0  0  0  0  0  0  0  0  0  0
   18.9620  -25.8850  -13.8520 C   0  0  0  0  0  2  0  0  0  0  0  0
   15.5080  -23.4590  -12.7660 C   0  0  0  0  0  0  0  0  0  0  0  0
   16.5400  -23.6880  -11.8330 C   0  0  0  0  0  3  0  0  0  0  0  0
   17.6540  -24.4690  -12.1830 C   0  0  0  0  0  3  0  0  0  0  0  0
   15.6040  -24.0240  -14.0550 C   0  0  0  0  0  3  0  0  0  0  0  0
   16.7220  -24.8060  -14.4070 C   0  0  0  0  0  3  0  0  0  0  0  0
   17.7540  -25.0340  -13.4730 C   0  0  0  0  0  0  0  0  0  0  0  0
   12.4000  -24.0060  -13.4410 C   0  0  0  0  0  1  0  0  0  0  0  0
   13.0210  -22.8830  -12.6350 C   0  0  0  0  0  0  0  0  0  0  0  0
   12.1740  -21.9700  -12.0380 N   0  0  0  0  0  0  0  0  0  0  0  0
   12.7780  -21.0400  -11.0890 C   0  0  0  0  0  2  0  0  0  0  0  0
   14.5550  -21.2490  -11.3830 S   0  0  0  0  0  0  0  0  0  0  0  0
   14.3180  -22.6980  -12.3490 C   0  0  0  0  0  0  0  0  0  0  0  0
   11.1600  -22.0510  -12.0670 H   0  0  0  0  0  0  0  0  0  0  0  0
   23.5080  -22.4430  -10.5820 O   0  0  0  0  0  0  0  0  0  0  0  0
   23.7190  -23.3540  -10.7550 H   0  0  0  0  0  0  0  0  0  0  0  0
   24.9170  -22.9670  -16.5900 C   0  0  1  0  0  0  0  0  0  0  0  0
   26.2620  -22.4710  -17.2540 C   0  0  0  0  0  1  0  0  0  0  0  0
   23.9730  -23.9950  -17.5110 C   0  0  0  0  0  1  0  0  0  0  0  0
   24.1960  -21.5990  -16.3490 C   0  0  0  0  0  1  0  0  0  0  0  0
   23.0550  -26.3570  -20.4070 O   0  0  0  0  0  0  0  0  0  0  0  0
   22.3680  -27.6130  -20.4850 C   0  0  0  0  0  0  0  0  0  0  0  0
   21.6940  -27.9000  -21.4810 O   0  0  0  0  0  0  0  0  0  0  0  0
   22.6420  -28.7420  -19.3620 C   0  0  0  0  0  0  0  0  0  0  0  0
   21.5450  -29.4150  -18.8870 N   0  0  0  0  0  0  0  0  0  0  0  0
   23.7960  -29.0330  -19.0240 O   0  0  0  0  0  0  0  0  0  0  0  0
   20.6100  -29.1980  -19.2000 H   0  0  0  0  0  0  0  0  0  0  0  0
   20.7280  -31.3070  -17.3910 C   0  0  0  0  0  0  0  0  0  0  0  0
   20.0120  -30.7150  -16.5710 O   0  0  0  0  0  0  0  0  0  0  0  0
   21.6290  -30.7270  -18.2540 N   0  0  0  0  0  0  0  0  0  0  0  0
   22.3270  -31.2850  -18.7290 H   0  0  0  0  0  0  0  0  0  0  0  0
   20.7060  -32.8510  -17.4030 C   0  0  0  0  0  2  0  0  0  0  0  0
   21.3110  -33.5340  -16.1390 C   0  0  0  0  0  3  0  0  0  0  0  0
   22.6220  -32.9560  -15.8550 N   0  0  0  0  0  0  0  0  0  0  0  0
   21.4370  -35.0530  -16.2330 C   0  0  0  0  0  0  0  0  0  0  0  0
   21.2470  -35.8070  -17.3250 N   0  0  0  0  0  0  0  0  0  0  0  0
   21.5780  -37.0970  -16.9550 N   0  0  0  0  0  0  0  0  0  0  0  0
   21.9570  -37.0230  -15.6760 C   0  0  0  0  0  0  0  0  0  0  0  0
   22.4570  -38.2020  -14.8970 C   0  0  0  0  0  1  0  0  0  0  0  0
   21.8640  -35.7720  -15.1740 N   0  0  0  0  0  0  0  0  0  0  0  0
   22.1290  -35.2820  -13.8800 C   0  0  0  0  0  0  0  0  0  0  0  0
   21.7160  -36.0880  -12.4000 S   0  0  0  0  0  0  0  0  0  0  0  0
   22.2700  -34.7340  -11.4590 C   0  0  0  0  0  0  0  0  0  0  0  0
   22.1790  -34.7910   -9.9680 C   0  0  0  0  0  1  0  0  0  0  0  0
   22.7380  -33.7060  -12.2500 C   0  0  0  0  0  0  0  0  0  0  0  0
   23.2180  -32.3950  -11.6760 C   0  0  0  0  0  1  0  0  0  0  0  0
   22.6930  -34.0460  -13.6510 C   0  0  0  0  0  0  0  0  0  0  0  0
   23.2140  -33.1510  -14.7370 C   0  0  0  0  0  0  0  0  0  0  0  0
   24.5080  -32.4660  -14.5350 C   0  0  0  0  0  0  0  0  0  0  0  0
   25.5940  -33.1760  -13.9730 C   0  0  0  0  0  3  0  0  0  0  0  0
   26.8200  -32.5240  -13.7520 C   0  0  0  0  0  3  0  0  0  0  0  0
   26.9620  -31.1630  -14.0860 C   0  0  0  0  0  0  0  0  0  0  0  0
   28.4650  -30.3650  -13.8120 Cl  0  0  0  0  0  0  0  0  0  0  0  0
   25.8830  -30.4560  -14.6490 C   0  0  0  0  0  3  0  0  0  0  0  0
   24.6600  -31.1080  -14.8840 C   0  0  0  0  0  3  0  0  0  0  0  0
  1  2  1  0
  1 12  1  0
  2  6  2  0
  3  4  1  0
  4  8  1  0
  4  2  1  0
  7  5  2  0
  9 13  1  0
  9 15  1  0
  9 10  1  0
 10 11  2  0
 12 14  1  0
 12 10  1  0
 15 21  1  0
 16 24  1  0
 16 17  1  0
 17 18  1  0
 18 41  1  0
 19 18  1  0
 20 19  1  0
 20 16  1  0
 21 22  2  0
 21 20  1  0
 23 26  1  0
 24 23  1  0
 25 24  2  0
 27 33  1  0
 27 23  1  0
 28 39  1  0
 28 29  1  0
 30 29  2  0
 31 28  2  0
 32 31  1  0
 32 33  2  0
 33 30  1  0
 34 35  1  0
 35 39  2  0
 35 36  1  0
 36 37  1  0
 38 37  1  0
 39 38  1  0
 40 36  1  0
 42 41  1  0
 43 46  1  1
 43 15  1  0
 44 43  1  0
 45 43  1  0
 47  3  1  0
 48 47  1  0
 48 50  1  0
 49 48  2  0
 50 52  2  0
 50 51  1  0
 51 56  1  0
 53 51  1  0
 54 55  2  0
 56 54  1  0
 57 56  1  0
 58 54  1  0
 59 58  1  0
 59 60  1  0
 60 74  2  0
 61 59  1  0
 61 66  1  0
 62 63  1  0
 62 61  2  0
 63 64  2  0
 64 66  1  0
 64 65  1  0
 66 67  1  0
 67 73  2  0
 67 68  1  0
 68 69  1  0
 69 70  1  0
 71 72  1  0
 71 69  2  0
 73 71  1  0
 74 75  1  0
 74 73  1  0
 75 76  1  0
 76 77  2  0
 78 79  1  0
 78 77  1  0
 80 78  2  0
 81 80  1  0
 81 75  2  0
M  ISO  4  10 101  12 101  54 100  56 100
M  END
>  <TORSDO>  (156) 
F 16

>  <SCORE>  (156) 
-13.297

>  <name>  (156) 
155

>  <ligand_id>  (156) 
155

>  <original_smiles>  (156) 
[H]OC1([H])C([H])([H])N(C(=O)C([H])(N([H])C(=O)N([H])C2=C([O-])C(Br)=C(OC(=O)C(=O)N([H])N([H])C(=O)C([H])([H])C3([H])N=C(c4c([H])c([H])c(Cl)c([H])c4[H])c4c(sc(C([H])([H])[H])c4C([H])([H])[H])-n4c(C([H])([H])[H])nnc43)C2=O)C(C([H])([H])[H])(C([H])([H])[H])C([H])([H])[H])C([H])(C(=O)N([H])C([H])([H])c2c([H])c([H])c(C3=C(C([H])([H])[H])N([H])C([H])([H])S3)c([H])c2[H])C1([H])[H]

>  <smiles>  (156) 
[H]OC1([H])C([H])([H])N(C(=O)C([H])(N([H])C(=O)N([H])C2=C([O-])C(Br)=C(OC(=O)C(=O)N([H])N([H])C(=O)C([H])([H])C3([H])N=C(c4c([H])c([H])c(Cl)c([H])c4[H])c4c(sc(C([H])([H])[H])c4C([H])([H])[H])-n4c(C([H])([H])[H])nnc43)C2=O)C(C([H])([H])[H])(C([H])([H])[H])C([H])([H])[H])C([H])(C(=O)N([H])C([H])([H])c2c([H])c([H])c(C3=C(C([H])([H])[H])N([H])C([H])([H])S3)c([H])c2[H])C1([H])[H]

$$$$
156:0:0
     RDKit          3D

 79 85  0  0  1  0  0  0  0  0999 V2000
   27.2020  -27.1020  -15.4000 N   0  0  0  0  0  4  0  0  0  0  0  0
   26.4770  -27.2370  -14.7080 H   0  0  0  0  0  0  0  0  0  0  0  0
   27.8860  -27.8420  -15.3210 H   0  0  0  0  0  0  0  0  0  0  0  0
   25.9600  -24.6630  -15.3310 N   0  0  0  0  0  0  0  0  0  0  0  0
   26.9860  -24.9900  -14.5350 C   0  0  0  0  0  0  0  0  0  0  0  0
   27.1820  -24.4800  -13.4330 O   0  0  0  0  0  0  0  0  0  0  0  0
   27.8800  -25.8040  -15.1090 N   0  0  0  0  0  0  0  0  0  0  0  0
   25.9370  -25.0600  -16.2590 H   0  0  0  0  0  0  0  0  0  0  0  0
   28.7620  -25.9220  -14.6350 H   0  0  0  0  0  0  0  0  0  0  0  0
   24.9920  -23.5840  -15.1250 C   0  0  0  0  0  3  0  0  0  0  0  0
   21.8310  -23.8740  -12.8050 C   0  0  0  0  0  3  0  0  0  0  0  0
   21.3430  -22.6430  -12.0230 C   0  0  0  0  0  2  0  0  0  0  0  0
   22.5950  -21.8240  -11.7940 C   0  0  0  0  0  3  0  0  0  0  0  0
   23.4950  -22.1350  -12.9900 C   0  0  0  0  0  2  0  0  0  0  0  0
   23.0430  -23.4280  -13.5240 N   0  0  0  0  0  0  0  0  0  0  0  0
   23.7230  -24.1680  -14.4380 C   0  0  0  0  0  0  0  0  0  0  0  0
   23.3920  -25.3260  -14.7170 O   0  0  0  0  0  0  0  0  0  0  0  0
   19.9000  -25.3270  -13.1360 N   0  0  0  0  0  0  0  0  0  0  0  0
   20.6880  -24.3980  -13.6890 C   0  0  0  0  0  0  0  0  0  0  0  0
   20.4900  -23.9280  -14.8130 O   0  0  0  0  0  0  0  0  0  0  0  0
   20.1470  -25.6690  -12.2180 H   0  0  0  0  0  0  0  0  0  0  0  0
   18.6530  -25.8170  -13.7040 C   0  0  0  0  0  2  0  0  0  0  0  0
   15.2280  -23.3160  -12.7190 C   0  0  0  0  0  0  0  0  0  0  0  0
   16.2510  -23.5210  -11.7700 C   0  0  0  0  0  3  0  0  0  0  0  0
   17.3600  -24.3250  -12.0850 C   0  0  0  0  0  3  0  0  0  0  0  0
   15.3280  -23.9220  -13.9900 C   0  0  0  0  0  3  0  0  0  0  0  0
   16.4390  -24.7270  -14.3050 C   0  0  0  0  0  3  0  0  0  0  0  0
   17.4610  -24.9340  -13.3560 C   0  0  0  0  0  0  0  0  0  0  0  0
   12.1270  -23.8430  -13.4410 C   0  0  0  0  0  1  0  0  0  0  0  0
   12.7460  -22.7100  -12.6450 C   0  0  0  0  0  0  0  0  0  0  0  0
   11.8980  -21.7790  -12.0830 N   0  0  0  0  0  0  0  0  0  0  0  0
   12.4950  -20.8400  -11.1390 C   0  0  0  0  0  2  0  0  0  0  0  0
   14.2740  -21.0730  -11.3950 S   0  0  0  0  0  0  0  0  0  0  0  0
   14.0390  -22.5360  -12.3390 C   0  0  0  0  0  0  0  0  0  0  0  0
   10.8860  -21.8460  -12.1350 H   0  0  0  0  0  0  0  0  0  0  0  0
   23.2470  -22.2430  -10.6050 O   0  0  0  0  0  0  0  0  0  0  0  0
   23.4540  -23.1690  -10.6870 H   0  0  0  0  0  0  0  0  0  0  0  0
   24.7080  -22.9360  -16.5320 C   0  0  1  0  0  0  0  0  0  0  0  0
   26.0120  -22.2860  -17.0570 C   0  0  0  0  0  1  0  0  0  0  0  0
   24.2230  -23.9550  -17.5920 C   0  0  0  0  0  1  0  0  0  0  0  0
   23.6540  -21.8110  -16.4400 C   0  0  0  0  0  1  0  0  0  0  0  0
   25.3420  -27.4150  -16.5720 C   0  0  0  0  0  2  0  0  0  0  0  0
   26.6100  -27.2100  -16.6750 N   0  0  0  0  0  2  0  0  0  0  0  0
   24.4920  -27.5020  -17.6540 N   0  0  0  0  0  0  0  0  0  0  0  0
   24.8340  -27.5840  -18.6090 H   0  0  0  0  0  0  0  0  0  0  0  0
   22.5650  -28.8240  -18.0790 C   0  0  0  0  0  0  0  0  0  0  0  0
   23.1320  -27.7750  -17.4860 N   0  0  0  0  0  0  0  0  0  0  0  0
   21.2960  -29.0170  -17.7260 N   0  0  0  0  0  0  0  0  0  0  0  0
   23.1700  -29.5670  -18.8570 O   0  0  0  0  0  0  0  0  0  0  0  0
   22.6220  -27.1520  -16.8740 H   0  0  0  0  0  0  0  0  0  0  0  0
   20.7990  -28.5150  -17.0030 H   0  0  0  0  0  0  0  0  0  0  0  0
   20.3280  -31.0260  -16.9750 C   0  0  0  0  0  0  0  0  0  0  0  0
   20.0190  -30.5420  -15.8810 O   0  0  0  0  0  0  0  0  0  0  0  0
   20.7180  -30.2670  -18.0020 N   0  0  0  0  0  0  0  0  0  0  0  0
   21.1070  -30.6580  -18.8530 H   0  0  0  0  0  0  0  0  0  0  0  0
   20.3770  -32.5430  -17.1870 C   0  0  0  0  0  2  0  0  0  0  0  0
   21.0210  -33.3090  -16.0030 C   0  0  0  0  0  3  0  0  0  0  0  0
   22.3740  -32.8050  -15.7530 N   0  0  0  0  0  0  0  0  0  0  0  0
   21.0660  -34.8120  -16.2080 C   0  0  0  0  0  0  0  0  0  0  0  0
   20.7740  -35.4740  -17.3350 N   0  0  0  0  0  0  0  0  0  0  0  0
   21.0350  -36.8030  -17.0660 N   0  0  0  0  0  0  0  0  0  0  0  0
   21.4760  -36.8400  -15.8040 C   0  0  0  0  0  0  0  0  0  0  0  0
   21.9330  -38.0970  -15.1280 C   0  0  0  0  0  1  0  0  0  0  0  0
   21.4900  -35.6230  -15.2200 N   0  0  0  0  0  0  0  0  0  0  0  0
   21.8400  -35.2330  -13.9120 C   0  0  0  0  0  0  0  0  0  0  0  0
   21.4410  -36.1040  -12.4660 S   0  0  0  0  0  0  0  0  0  0  0  0
   22.1310  -34.8550  -11.4700 C   0  0  0  0  0  0  0  0  0  0  0  0
   22.1070  -35.0070   -9.9820 C   0  0  0  0  0  1  0  0  0  0  0  0
   22.6240  -33.8080  -12.2190 C   0  0  0  0  0  0  0  0  0  0  0  0
   23.2120  -32.5700  -11.5880 C   0  0  0  0  0  1  0  0  0  0  0  0
   22.4890  -34.0490  -13.6340 C   0  0  0  0  0  0  0  0  0  0  0  0
   23.0120  -33.1160  -14.6870 C   0  0  0  0  0  0  0  0  0  0  0  0
   24.3620  -32.5370  -14.5050 C   0  0  0  0  0  0  0  0  0  0  0  0
   25.4230  -33.3500  -14.0470 C   0  0  0  0  0  3  0  0  0  0  0  0
   26.7000  -32.7950  -13.8440 C   0  0  0  0  0  3  0  0  0  0  0  0
   26.9210  -31.4300  -14.0990 C   0  0  0  0  0  0  0  0  0  0  0  0
   28.4820  -30.7430  -13.8480 Cl  0  0  0  0  0  0  0  0  0  0  0  0
   25.8660  -30.6210  -14.5590 C   0  0  0  0  0  3  0  0  0  0  0  0
   24.5880  -31.1700  -14.7700 C   0  0  0  0  0  3  0  0  0  0  0  0
  1  3  1  0
  1  7  1  0
  1  2  1  0
  4 10  1  0
  4  5  1  0
  5  6  2  0
  7  9  1  0
  7  5  1  0
  8  4  1  0
 10 16  1  0
 11 19  1  0
 11 12  1  0
 12 13  1  0
 13 36  1  0
 14 13  1  0
 15 14  1  0
 15 11  1  0
 16 15  1  0
 17 16  2  0
 18 21  1  0
 19 18  1  0
 20 19  2  0
 22 28  1  0
 22 18  1  0
 23 34  1  0
 23 24  1  0
 25 24  2  0
 26 23  2  0
 27 26  1  0
 27 28  2  0
 28 25  1  0
 29 30  1  0
 30 34  2  0
 30 31  1  0
 31 32  1  0
 33 32  1  0
 34 33  1  0
 35 31  1  0
 37 36  1  0
 38 41  1  1
 38 10  1  0
 39 38  1  0
 40 38  1  0
 43 42  1  0
 43  1  1  0
 44 47  1  0
 44 42  1  0
 45 44  1  0
 46 48  1  0
 46 47  1  0
 47 50  1  0
 48 51  1  0
 49 46  2  0
 52 53  2  0
 54 48  1  0
 54 52  1  0
 55 54  1  0
 56 52  1  0
 57 56  1  0
 57 58  1  0
 58 72  2  0
 59 57  1  0
 59 64  1  0
 60 61  1  0
 60 59  2  0
 61 62  2  0
 62 64  1  0
 62 63  1  0
 64 65  1  0
 65 71  2  0
 65 66  1  0
 66 67  1  0
 67 68  1  0
 69 70  1  0
 69 67  2  0
 71 69  1  0
 72 73  1  0
 72 71  1  0
 73 74  1  0
 74 75  2  0
 76 77  1  0
 76 75  1  0
 78 76  2  0
 79 78  1  0
 79 73  2  0
M  ISO  4   5 101   7 101  52 100  54 100
M  END
>  <TORSDO>  (157) 
F 15

>  <SCORE>  (157) 
-13.490

>  <name>  (157) 
156

>  <ligand_id>  (157) 
156

>  <original_smiles>  (157) 
[H]OC1([H])C([H])([H])N(C(=O)C([H])(N([H])C(=O)N([H])[N+]([H])([H])N=C([H])N([H])N([H])C(=O)N([H])N([H])C(=O)C([H])([H])C2([H])N=C(c3c([H])c([H])c(Cl)c([H])c3[H])c3c(sc(C([H])([H])[H])c3C([H])([H])[H])-n3c(C([H])([H])[H])nnc32)C(C([H])([H])[H])(C([H])([H])[H])C([H])([H])[H])C([H])(C(=O)N([H])C([H])([H])c2c([H])c([H])c(C3=C(C([H])([H])[H])N([H])C([H])([H])S3)c([H])c2[H])C1([H])[H]

>  <smiles>  (157) 
[H]OC1([H])C([H])([H])N(C(=O)C([H])(N([H])C(=O)N([H])[N+]([H])([H])N=C([H])N([H])N([H])C(=O)N([H])N([H])C(=O)C([H])([H])C2([H])N=C(c3c([H])c([H])c(Cl)c([H])c3[H])c3c(sc(C([H])([H])[H])c3C([H])([H])[H])-n3c(C([H])([H])[H])nnc32)C(C([H])([H])[H])(C([H])([H])[H])C([H])([H])[H])C([H])(C(=O)N([H])C([H])([H])c2c([H])c([H])c(C3=C(C([H])([H])[H])N([H])C([H])([H])S3)c([H])c2[H])C1([H])[H]

$$$$
157:0:0
     RDKit          3D

 82 88  0  0  1  0  0  0  0  0999 V2000
   26.1820  -28.0770  -16.6670 C   0  0  0  0  0  0  0  0  0  0  0  0
   26.6890  -29.1690  -17.2610 N   0  0  0  0  0  4  0  0  0  0  0  0
   24.8260  -27.9740  -16.5450 N   0  0  0  0  0  0  0  0  0  0  0  0
   27.6750  -29.2720  -17.4400 H   0  0  0  0  0  0  0  0  0  0  0  0
   26.0520  -29.8680  -17.6080 H   0  0  0  0  0  0  0  0  0  0  0  0
   24.3890  -27.2400  -15.9980 H   0  0  0  0  0  0  0  0  0  0  0  0
   22.7270  -28.8980  -17.2050 C   0  0  0  0  0  0  0  0  0  0  0  0
   24.0190  -28.8230  -17.3140 N   0  0  0  0  0  2  0  0  0  0  0  0
   21.9800  -28.3530  -16.1780 N   0  0  0  0  0  4  0  0  0  0  0  0
   20.9870  -28.5280  -16.0730 H   0  0  0  0  0  0  0  0  0  0  0  0
   22.3320  -27.9160  -15.3390 H   0  0  0  0  0  0  0  0  0  0  0  0
   20.8360  -31.4580  -17.1980 C   0  0  0  0  0  0  0  0  0  0  0  0
   20.4050  -30.9030  -16.1820 O   0  0  0  0  0  0  0  0  0  0  0  0
   22.0190  -29.5420  -18.3470 C   0  0  0  0  0  3  0  0  0  0  0  0
   21.3600  -30.7260  -18.3090 N   0  0  0  0  0  0  0  0  0  0  0  0
   22.1910  -28.9070  -19.5220 N   0  0  0  0  0  0  0  0  0  0  0  0
   21.4040  -31.1390  -19.2270 H   0  0  0  0  0  0  0  0  0  0  0  0
   22.7880  -28.1220  -19.7520 H   0  0  0  0  0  0  0  0  0  0  0  0
   21.6320  -29.5480  -20.6330 O   0  0  0  0  0  0  0  0  0  0  0  0
   20.8750  -29.0090  -20.8430 H   0  0  0  0  0  0  0  0  0  0  0  0
   20.9140  -32.9880  -17.3410 C   0  0  0  0  0  2  0  0  0  0  0  0
   21.4190  -33.6760  -16.0440 C   0  0  0  0  0  3  0  0  0  0  0  0
   22.7570  -33.1750  -15.7140 N   0  0  0  0  0  0  0  0  0  0  0  0
   21.4450  -35.1940  -16.1080 C   0  0  0  0  0  0  0  0  0  0  0  0
   21.2460  -35.9550  -17.1910 N   0  0  0  0  0  0  0  0  0  0  0  0
   21.4540  -37.2580  -16.7780 N   0  0  0  0  0  0  0  0  0  0  0  0
   21.7760  -37.1810  -15.4830 C   0  0  0  0  0  0  0  0  0  0  0  0
   22.1440  -38.3730  -14.6540 C   0  0  0  0  0  1  0  0  0  0  0  0
   21.7610  -35.9160  -15.0120 N   0  0  0  0  0  0  0  0  0  0  0  0
   21.9970  -35.4130  -13.7180 C   0  0  0  0  0  0  0  0  0  0  0  0
   21.4470  -36.1400  -12.2440 S   0  0  0  0  0  0  0  0  0  0  0  0
   22.0670  -34.8120  -11.3040 C   0  0  0  0  0  0  0  0  0  0  0  0
   21.9030  -34.8240   -9.8180 C   0  0  0  0  0  1  0  0  0  0  0  0
   22.6510  -33.8450  -12.0950 C   0  0  0  0  0  0  0  0  0  0  0  0
   23.2020  -32.5620  -11.5280 C   0  0  0  0  0  1  0  0  0  0  0  0
   22.6440  -34.2170  -13.4890 C   0  0  0  0  0  0  0  0  0  0  0  0
   23.2850  -33.3930  -14.5660 C   0  0  0  0  0  0  0  0  0  0  0  0
   24.6200  -32.8120  -14.3120 C   0  0  0  0  0  0  0  0  0  0  0  0
   25.6360  -33.6060  -13.7320 C   0  0  0  0  0  3  0  0  0  0  0  0
   26.8990  -33.0490  -13.4630 C   0  0  0  0  0  3  0  0  0  0  0  0
   27.1500  -31.6980  -13.7650 C   0  0  0  0  0  0  0  0  0  0  0  0
   28.6950  -31.0090  -13.4350 Cl  0  0  0  0  0  0  0  0  0  0  0  0
   26.1380  -30.9040  -14.3320 C   0  0  0  0  0  3  0  0  0  0  0  0
   24.8770  -31.4600  -14.6190 C   0  0  0  0  0  3  0  0  0  0  0  0
   27.1730  -26.9890  -16.2890 C   0  0  0  0  0  2  0  0  0  0  0  0
   27.2000  -26.5430  -14.9190 O   0  0  0  0  0  0  0  0  0  0  0  0
   25.9450  -24.7580  -15.4390 N   0  0  0  0  0  0  0  0  0  0  0  0
   26.8620  -25.2690  -14.5560 C   0  0  0  0  0  0  0  0  0  0  0  0
   27.2400  -24.7110  -13.5220 O   0  0  0  0  0  0  0  0  0  0  0  0
   25.7940  -25.2820  -16.2810 H   0  0  0  0  0  0  0  0  0  0  0  0
   25.0170  -23.6610  -15.2260 C   0  0  0  0  0  3  0  0  0  0  0  0
   21.9220  -24.0000  -12.8240 C   0  0  0  0  0  3  0  0  0  0  0  0
   21.4770  -22.7900  -11.9890 C   0  0  0  0  0  2  0  0  0  0  0  0
   22.7480  -22.0000  -11.7620 C   0  0  0  0  0  3  0  0  0  0  0  0
   23.6100  -22.2830  -12.9920 C   0  0  0  0  0  2  0  0  0  0  0  0
   23.1200  -23.5460  -13.5590 N   0  0  0  0  0  0  0  0  0  0  0  0
   23.7580  -24.2560  -14.5240 C   0  0  0  0  0  0  0  0  0  0  0  0
   23.4020  -25.4030  -14.8410 O   0  0  0  0  0  0  0  0  0  0  0  0
   19.9530  -25.4010  -13.1450 N   0  0  0  0  0  0  0  0  0  0  0  0
   20.7470  -24.4760  -13.6930 C   0  0  0  0  0  0  0  0  0  0  0  0
   20.5360  -23.9760  -14.8010 O   0  0  0  0  0  0  0  0  0  0  0  0
   20.2080  -25.7680  -12.2390 H   0  0  0  0  0  0  0  0  0  0  0  0
   18.6810  -25.8500  -13.6970 C   0  0  0  0  0  2  0  0  0  0  0  0
   15.3490  -23.2540  -12.6440 C   0  0  0  0  0  0  0  0  0  0  0  0
   16.3890  -23.4800  -11.7200 C   0  0  0  0  0  3  0  0  0  0  0  0
   17.4690  -24.3140  -12.0570 C   0  0  0  0  0  3  0  0  0  0  0  0
   15.4020  -23.8690  -13.9120 C   0  0  0  0  0  3  0  0  0  0  0  0
   16.4840  -24.7040  -14.2500 C   0  0  0  0  0  3  0  0  0  0  0  0
   17.5230  -24.9330  -13.3250 C   0  0  0  0  0  0  0  0  0  0  0  0
   12.2140  -23.7270  -13.2470 C   0  0  0  0  0  1  0  0  0  0  0  0
   12.8830  -22.5920  -12.4960 C   0  0  0  0  0  0  0  0  0  0  0  0
   12.0760  -21.6310  -11.9230 N   0  0  0  0  0  0  0  0  0  0  0  0
   12.7250  -20.6860  -11.0230 C   0  0  0  0  0  2  0  0  0  0  0  0
   14.4900  -20.9630  -11.3360 S   0  0  0  0  0  0  0  0  0  0  0  0
   14.1900  -22.4400  -12.2390 C   0  0  0  0  0  0  0  0  0  0  0  0
   11.0610  -21.6770  -11.9380 H   0  0  0  0  0  0  0  0  0  0  0  0
   23.4230  -22.4720  -10.6060 O   0  0  0  0  0  0  0  0  0  0  0  0
   23.6210  -23.3940  -10.7290 H   0  0  0  0  0  0  0  0  0  0  0  0
   24.7260  -23.0440  -16.6400 C   0  0  1  0  0  0  0  0  0  0  0  0
   26.0250  -22.3950  -17.1740 C   0  0  0  0  0  1  0  0  0  0  0  0
   24.2490  -24.0900  -17.6780 C   0  0  0  0  0  1  0  0  0  0  0  0
   23.6640  -21.9280  -16.5620 C   0  0  0  0  0  1  0  0  0  0  0  0
  1  3  1  0
  1 45  1  0
  2  1  2  0
  3  6  1  0
  4  2  1  0
  5  2  1  0
  7  9  2  0
  8  7  1  0
  8  3  1  0
  9 10  1  0
  9 11  1  0
 12 13  2  0
 14 15  1  0
 14  7  1  0
 15 12  1  0
 16 14  1  0
 17 15  1  0
 18 16  1  0
 19 16  1  0
 20 19  1  0
 21 12  1  0
 22 21  1  0
 22 23  1  0
 23 37  2  0
 24 22  1  0
 24 29  1  0
 25 26  1  0
 25 24  2  0
 26 27  2  0
 27 29  1  0
 27 28  1  0
 29 30  1  0
 30 36  2  0
 30 31  1  0
 31 32  1  0
 32 33  1  0
 34 35  1  0
 34 32  2  0
 36 34  1  0
 37 38  1  0
 37 36  1  0
 38 39  1  0
 39 40  2  0
 41 40  1  0
 41 42  1  0
 43 41  2  0
 44 43  1  0
 44 38  2  0
 45 46  1  0
 46 48  1  0
 47 51  1  0
 47 48  1  0
 48 49  2  0
 50 47  1  0
 51 57  1  0
 52 60  1  0
 52 53  1  0
 53 54  1  0
 54 77  1  0
 55 54  1  0
 56 55  1  0
 56 52  1  0
 57 56  1  0
 58 57  2  0
 59 62  1  0
 60 59  1  0
 61 60  2  0
 63 69  1  0
 63 59  1  0
 64 75  1  0
 64 65  1  0
 66 65  2  0
 67 64  2  0
 68 67  1  0
 68 69  2  0
 69 66  1  0
 70 71  1  0
 71 75  2  0
 71 72  1  0
 72 73  1  0
 74 73  1  0
 75 74  1  0
 76 72  1  0
 78 77  1  0
 79 82  1  1
 79 51  1  0
 80 79  1  0
 81 79  1  0
M  ISO  4  12 100  15 100  46 101  48 101
M  END
>  <TORSDO>  (158) 
F 17

>  <SCORE>  (158) 
-14.126

>  <name>  (158) 
157

>  <ligand_id>  (158) 
157

>  <original_smiles>  (158) 
[H]O[N+]([H])=C(C(=N[N+]([H])=C(N([H])[H])C([H])([H])OC(=O)N([H])C([H])(C(=O)N1C([H])([H])C([H])(O[H])C([H])([H])C1([H])C(=O)N([H])C([H])([H])c1c([H])c([H])c(C2=C(C([H])([H])[H])N([H])C([H])([H])S2)c([H])c1[H])C(C([H])([H])[H])(C([H])([H])[H])C([H])([H])[H])N([H])[H])N([H])C(=O)C([H])([H])C1([H])N=C(c2c([H])c([H])c(Cl)c([H])c2[H])c2c(sc(C([H])([H])[H])c2C([H])([H])[H])-n2c(C([H])([H])[H])nnc21

>  <smiles>  (158) 
[H]O[N+]([H])=C(C(=N[N+]([H])=C(N([H])[H])C([H])([H])OC(=O)N([H])C([H])(C(=O)N1C([H])([H])C([H])(O[H])C([H])([H])C1([H])C(=O)N([H])C([H])([H])c1c([H])c([H])c(C2=C(C([H])([H])[H])N([H])C([H])([H])S2)c([H])c1[H])C(C([H])([H])[H])(C([H])([H])[H])C([H])([H])[H])N([H])[H])N([H])C(=O)C([H])([H])C1([H])N=C(c2c([H])c([H])c(Cl)c([H])c2[H])c2c(sc(C([H])([H])[H])c2C([H])([H])[H])-n2c(C([H])([H])[H])nnc21

$$$$
158:0:0
     RDKit          3D

 77 83  0  0  1  0  0  0  0  0999 V2000
   25.8890  -24.6950  -15.4470 N   0  0  0  0  0  0  0  0  0  0  0  0
   26.7870  -25.1820  -14.5880 C   0  0  0  0  0  0  0  0  0  0  0  0
   27.1450  -24.6000  -13.5570 O   0  0  0  0  0  0  0  0  0  0  0  0
   26.8930  -27.4070  -15.8730 C   0  0  0  0  0  3  0  0  0  0  0  0
   24.9890  -28.4820  -17.1270 C   0  0  0  0  0  0  0  0  0  0  0  0
   27.9810  -28.3850  -16.3170 C   0  0  0  0  0  1  0  0  0  0  0  0
   25.5610  -27.5430  -16.2760 N   0  0  0  0  0  0  0  0  0  0  0  0
   25.6930  -29.4750  -17.7030 N   0  0  0  0  0  4  0  0  0  0  0  0
   27.3960  -26.4130  -15.0490 N   0  0  0  0  0  0  0  0  0  0  0  0
   25.9020  -25.0470  -16.3870 H   0  0  0  0  0  0  0  0  0  0  0  0
   24.9060  -26.8920  -15.8720 H   0  0  0  0  0  0  0  0  0  0  0  0
   25.2800  -30.0320  -18.4340 H   0  0  0  0  0  0  0  0  0  0  0  0
   26.6740  -29.6300  -17.5410 H   0  0  0  0  0  0  0  0  0  0  0  0
   28.2840  -26.6630  -14.6390 H   0  0  0  0  0  0  0  0  0  0  0  0
   24.9370  -23.6030  -15.2470 C   0  0  0  0  0  3  0  0  0  0  0  0
   21.8400  -23.9280  -12.8360 C   0  0  0  0  0  3  0  0  0  0  0  0
   21.3910  -22.7190  -12.0010 C   0  0  0  0  0  2  0  0  0  0  0  0
   22.6580  -21.9180  -11.7870 C   0  0  0  0  0  3  0  0  0  0  0  0
   23.5200  -22.2050  -13.0180 C   0  0  0  0  0  2  0  0  0  0  0  0
   23.0340  -23.4730  -13.5770 N   0  0  0  0  0  0  0  0  0  0  0  0
   23.6780  -24.1870  -14.5380 C   0  0  0  0  0  0  0  0  0  0  0  0
   23.3330  -25.3370  -14.8470 O   0  0  0  0  0  0  0  0  0  0  0  0
   19.8760  -25.3410  -13.1510 N   0  0  0  0  0  0  0  0  0  0  0  0
   20.6650  -24.4140  -13.7040 C   0  0  0  0  0  0  0  0  0  0  0  0
   20.4550  -23.9220  -14.8150 O   0  0  0  0  0  0  0  0  0  0  0  0
   20.1340  -25.7060  -12.2440 H   0  0  0  0  0  0  0  0  0  0  0  0
   18.6070  -25.8000  -13.7020 C   0  0  0  0  0  2  0  0  0  0  0  0
   15.2620  -23.2230  -12.6470 C   0  0  0  0  0  0  0  0  0  0  0  0
   16.3000  -23.4500  -11.7200 C   0  0  0  0  0  3  0  0  0  0  0  0
   17.3840  -24.2790  -12.0580 C   0  0  0  0  0  3  0  0  0  0  0  0
   15.3220  -23.8300  -13.9180 C   0  0  0  0  0  3  0  0  0  0  0  0
   16.4080  -24.6600  -14.2580 C   0  0  0  0  0  3  0  0  0  0  0  0
   17.4450  -24.8900  -13.3300 C   0  0  0  0  0  0  0  0  0  0  0  0
   12.1320  -23.7010  -13.2710 C   0  0  0  0  0  1  0  0  0  0  0  0
   12.7930  -22.5710  -12.5050 C   0  0  0  0  0  0  0  0  0  0  0  0
   11.9790  -21.6200  -11.9270 N   0  0  0  0  0  0  0  0  0  0  0  0
   12.6210  -20.6800  -11.0140 C   0  0  0  0  0  2  0  0  0  0  0  0
   14.3880  -20.9490  -11.3200 S   0  0  0  0  0  0  0  0  0  0  0  0
   14.0980  -22.4160  -12.2400 C   0  0  0  0  0  0  0  0  0  0  0  0
   10.9650  -21.6780  -11.9350 H   0  0  0  0  0  0  0  0  0  0  0  0
   23.3410  -22.3740  -10.6290 O   0  0  0  0  0  0  0  0  0  0  0  0
   23.5800  -23.2860  -10.7570 H   0  0  0  0  0  0  0  0  0  0  0  0
   24.6440  -23.0200  -16.6810 C   0  0  1  0  0  0  0  0  0  0  0  0
   25.9400  -22.3790  -17.2280 C   0  0  0  0  0  1  0  0  0  0  0  0
   24.1710  -24.0870  -17.7010 C   0  0  0  0  0  1  0  0  0  0  0  0
   23.5730  -21.9090  -16.6450 C   0  0  0  0  0  1  0  0  0  0  0  0
   23.5200  -28.4190  -17.5990 C   0  0  0  0  0  2  0  0  0  0  0  0
   21.1030  -31.4080  -17.0410 C   0  0  0  0  0  0  0  0  0  0  0  0
   20.1970  -31.0340  -16.2940 O   0  0  0  0  0  0  0  0  0  0  0  0
   22.4670  -29.3500  -16.9030 C   0  0  0  0  0  0  0  0  0  0  0  0
   22.1120  -30.5660  -17.4430 N   0  0  0  0  0  0  0  0  0  0  0  0
   21.9590  -28.8970  -15.8740 O   0  0  0  0  0  0  0  0  0  0  0  0
   22.7080  -30.9320  -18.1690 H   0  0  0  0  0  0  0  0  0  0  0  0
   21.1900  -32.9360  -17.3410 C   0  0  0  0  0  2  0  0  0  0  0  0
   21.5640  -33.6980  -16.0290 C   0  0  0  0  0  3  0  0  0  0  0  0
   22.8830  -33.2060  -15.6500 N   0  0  0  0  0  0  0  0  0  0  0  0
   21.5940  -35.2230  -16.0670 C   0  0  0  0  0  0  0  0  0  0  0  0
   21.4010  -36.0060  -17.1360 N   0  0  0  0  0  0  0  0  0  0  0  0
   21.6310  -37.3010  -16.7010 N   0  0  0  0  0  0  0  0  0  0  0  0
   21.9440  -37.2040  -15.4050 C   0  0  0  0  0  0  0  0  0  0  0  0
   22.3330  -38.3840  -14.5620 C   0  0  0  0  0  1  0  0  0  0  0  0
   21.9000  -35.9310  -14.9530 N   0  0  0  0  0  0  0  0  0  0  0  0
   22.1100  -35.4180  -13.6550 C   0  0  0  0  0  0  0  0  0  0  0  0
   21.5660  -36.1510  -12.1770 S   0  0  0  0  0  0  0  0  0  0  0  0
   22.1480  -34.8060  -11.2400 C   0  0  0  0  0  0  0  0  0  0  0  0
   21.9710  -34.8140   -9.7550 C   0  0  0  0  0  1  0  0  0  0  0  0
   22.7130  -33.8290  -12.0320 C   0  0  0  0  0  0  0  0  0  0  0  0
   23.2220  -32.5250  -11.4720 C   0  0  0  0  0  1  0  0  0  0  0  0
   22.7310  -34.2130  -13.4210 C   0  0  0  0  0  0  0  0  0  0  0  0
   23.3770  -33.3930  -14.4910 C   0  0  0  0  0  0  0  0  0  0  0  0
   24.6900  -32.7740  -14.2330 C   0  0  0  0  0  0  0  0  0  0  0  0
   25.7150  -33.5200  -13.6170 C   0  0  0  0  0  3  0  0  0  0  0  0
   26.9600  -32.9240  -13.3540 C   0  0  0  0  0  3  0  0  0  0  0  0
   27.1840  -31.5800  -13.7050 C   0  0  0  0  0  0  0  0  0  0  0  0
   28.7050  -30.8400  -13.3840 Cl  0  0  0  0  0  0  0  0  0  0  0  0
   26.1580  -30.8340  -14.3110 C   0  0  0  0  0  3  0  0  0  0  0  0
   24.9160  -31.4290  -14.5900 C   0  0  0  0  0  3  0  0  0  0  0  0
  1 15  1  0
  1  2  1  0
  2  3  2  0
  4  6  1  0
  4  9  1  0
  5  7  1  0
  7  4  1  0
  7 11  1  0
  8 13  1  0
  8  5  2  0
  9 14  1  0
  9  2  1  0
 10  1  1  0
 12  8  1  0
 15 21  1  0
 16 24  1  0
 16 17  1  0
 17 18  1  0
 18 41  1  0
 19 18  1  0
 20 19  1  0
 20 16  1  0
 21 20  1  0
 22 21  2  0
 23 26  1  0
 24 23  1  0
 25 24  2  0
 27 33  1  0
 27 23  1  0
 28 39  1  0
 28 29  1  0
 30 29  2  0
 31 28  2  0
 32 31  1  0
 32 33  2  0
 33 30  1  0
 34 35  1  0
 35 39  2  0
 35 36  1  0
 36 37  1  0
 38 37  1  0
 39 38  1  0
 40 36  1  0
 42 41  1  0
 43 46  1  1
 43 15  1  0
 44 43  1  0
 45 43  1  0
 47  5  1  0
 47 50  1  0
 48 49  2  0
 50 52  2  0
 51 48  1  0
 51 50  1  0
 53 51  1  0
 54 48  1  0
 55 54  1  0
 55 56  1  0
 56 70  2  0
 57 55  1  0
 57 62  1  0
 58 59  1  0
 58 57  2  0
 59 60  2  0
 60 62  1  0
 60 61  1  0
 62 63  1  0
 63 69  2  0
 63 64  1  0
 64 65  1  0
 65 66  1  0
 67 68  1  0
 67 65  2  0
 69 67  1  0
 70 71  1  0
 70 69  1  0
 71 72  1  0
 72 73  2  0
 74 75  1  0
 74 73  1  0
 76 74  2  0
 77 76  1  0
 77 71  2  0
M  ISO  4   2 101   9 101  48 100  51 100
M  END
>  <TORSDO>  (159) 
F 13

>  <SCORE>  (159) 
-14.867

>  <name>  (159) 
158

>  <ligand_id>  (159) 
158

>  <original_smiles>  (159) 
[H]OC1([H])C([H])([H])N(C(=O)C([H])(N([H])C(=O)[N+]([H])=C(N([H])C(=[N+]([H])[H])C([H])([H])C(=O)N([H])C(=O)C([H])([H])C2([H])N=C(c3c([H])c([H])c(Cl)c([H])c3[H])c3c(sc(C([H])([H])[H])c3C([H])([H])[H])-n3c(C([H])([H])[H])nnc32)C([H])([H])[H])C(C([H])([H])[H])(C([H])([H])[H])C([H])([H])[H])C([H])(C(=O)N([H])C([H])([H])c2c([H])c([H])c(C3=C(C([H])([H])[H])N([H])C([H])([H])S3)c([H])c2[H])C1([H])[H]

>  <smiles>  (159) 
[H]OC1([H])C([H])([H])N(C(=O)C([H])(N([H])C(=O)[N+]([H])=C(N([H])C(=[N+]([H])[H])C([H])([H])C(=O)N([H])C(=O)C([H])([H])C2([H])N=C(c3c([H])c([H])c(Cl)c([H])c3[H])c3c(sc(C([H])([H])[H])c3C([H])([H])[H])-n3c(C([H])([H])[H])nnc32)C([H])([H])[H])C(C([H])([H])[H])(C([H])([H])[H])C([H])([H])[H])C([H])(C(=O)N([H])C([H])([H])c2c([H])c([H])c(C3=C(C([H])([H])[H])N([H])C([H])([H])S3)c([H])c2[H])C1([H])[H]

$$$$
159:0:0
     RDKit          3D

 77 84  0  0  1  0  0  0  0  0999 V2000
   24.9680  -27.2800  -20.1220 C   0  0  0  0  0  2  0  0  0  0  0  0
   23.9830  -26.2940  -20.7710 C   0  0  0  0  0  2  0  0  0  0  0  0
   23.2030  -28.5920  -15.9350 C   0  0  0  0  0  2  0  0  0  0  0  0
   21.9580  -28.5090  -18.2390 C   0  0  0  0  0  2  0  0  0  0  0  0
   26.4130  -27.6610  -16.9890 C   0  0  0  0  0  2  0  0  0  0  0  0
   22.8230  -29.3570  -17.2820 C   0  0  0  0  0  3  0  0  0  0  0  0
   25.4040  -27.2820  -15.8760 C   0  0  0  0  0  3  0  0  0  0  0  0
   24.6220  -28.4450  -15.5620 O   0  0  0  0  0  0  0  0  0  0  0  0
   24.8800  -27.1660  -18.7120 O   0  0  0  0  0  0  0  0  0  0  0  0
   22.7170  -26.3050  -20.1240 O   0  0  0  0  0  0  0  0  0  0  0  0
   22.4270  -28.7380  -19.5590 O   0  0  0  0  0  0  0  0  0  0  0  0
   25.7480  -28.2200  -18.1070 O   0  0  0  0  0  0  0  0  0  0  0  0
   22.0040  -27.5920  -20.4250 O   0  0  0  0  0  0  0  0  0  0  0  0
   22.4060  -30.7670  -17.3150 O   0  0  0  0  0  0  0  0  0  0  0  0
   21.1540  -31.3350  -17.0110 C   0  0  0  0  0  0  0  0  0  0  0  0
   20.2750  -30.7750  -16.3620 O   0  0  0  0  0  0  0  0  0  0  0  0
   21.0780  -32.8630  -17.2870 C   0  0  0  0  0  2  0  0  0  0  0  0
   21.4950  -33.6570  -16.0170 C   0  0  0  0  0  3  0  0  0  0  0  0
   22.8510  -33.2470  -15.6770 N   0  0  0  0  0  0  0  0  0  0  0  0
   21.4440  -35.1780  -16.0730 C   0  0  0  0  0  0  0  0  0  0  0  0
   21.2240  -35.9470  -17.1460 N   0  0  0  0  0  0  0  0  0  0  0  0
   21.3950  -37.2530  -16.7140 N   0  0  0  0  0  0  0  0  0  0  0  0
   21.7150  -37.1710  -15.4190 C   0  0  0  0  0  0  0  0  0  0  0  0
   22.0540  -38.3630  -14.5730 C   0  0  0  0  0  1  0  0  0  0  0  0
   21.7280  -35.8990  -14.9640 N   0  0  0  0  0  0  0  0  0  0  0  0
   21.9750  -35.3930  -13.6700 C   0  0  0  0  0  0  0  0  0  0  0  0
   21.4010  -36.0860  -12.1870 S   0  0  0  0  0  0  0  0  0  0  0  0
   22.0520  -34.7590  -11.2620 C   0  0  0  0  0  0  0  0  0  0  0  0
   21.8830  -34.7430   -9.7770 C   0  0  0  0  0  1  0  0  0  0  0  0
   22.6660  -33.8210  -12.0630 C   0  0  0  0  0  0  0  0  0  0  0  0
   23.2460  -32.5410  -11.5170 C   0  0  0  0  0  1  0  0  0  0  0  0
   22.6630  -34.2190  -13.4450 C   0  0  0  0  0  0  0  0  0  0  0  0
   23.3490  -33.4470  -14.5230 C   0  0  0  0  0  0  0  0  0  0  0  0
   24.6970  -32.9000  -14.2730 C   0  0  0  0  0  0  0  0  0  0  0  0
   25.6770  -33.6840  -13.6320 C   0  0  0  0  0  3  0  0  0  0  0  0
   26.9510  -33.1420  -13.3750 C   0  0  0  0  0  3  0  0  0  0  0  0
   27.2450  -31.8200  -13.7530 C   0  0  0  0  0  0  0  0  0  0  0  0
   28.7970  -31.1450  -13.4350 Cl  0  0  0  0  0  0  0  0  0  0  0  0
   26.2740  -31.0430  -14.3980 C   0  0  0  0  0  3  0  0  0  0  0  0
   25.0050  -31.5870  -14.6680 C   0  0  0  0  0  3  0  0  0  0  0  0
   26.1790  -26.7530  -14.7530 O   0  0  0  0  0  0  0  0  0  0  0  0
   25.8740  -24.6430  -15.6060 N   0  0  0  0  0  0  0  0  0  0  0  0
   26.5340  -25.3550  -14.6490 C   0  0  0  0  0  0  0  0  0  0  0  0
   27.1640  -24.8140  -13.7240 O   0  0  0  0  0  0  0  0  0  0  0  0
   25.5880  -25.1880  -16.4020 H   0  0  0  0  0  0  0  0  0  0  0  0
   24.9340  -23.5680  -15.3280 C   0  0  0  0  0  3  0  0  0  0  0  0
   21.8720  -23.9490  -12.8680 C   0  0  0  0  0  3  0  0  0  0  0  0
   21.4240  -22.7560  -12.0120 C   0  0  0  0  0  2  0  0  0  0  0  0
   22.6920  -21.9580  -11.7910 C   0  0  0  0  0  3  0  0  0  0  0  0
   23.5450  -22.2140  -13.0330 C   0  0  0  0  0  2  0  0  0  0  0  0
   23.0580  -23.4700  -13.6080 N   0  0  0  0  0  0  0  0  0  0  0  0
   23.6820  -24.1610  -14.5920 C   0  0  0  0  0  0  0  0  0  0  0  0
   23.3050  -25.2940  -14.9040 O   0  0  0  0  0  0  0  0  0  0  0  0
   19.9120  -25.3730  -13.1800 N   0  0  0  0  0  0  0  0  0  0  0  0
   20.6910  -24.4330  -13.7280 C   0  0  0  0  0  0  0  0  0  0  0  0
   20.4630  -23.9290  -14.8290 O   0  0  0  0  0  0  0  0  0  0  0  0
   20.1810  -25.7440  -12.2790 H   0  0  0  0  0  0  0  0  0  0  0  0
   18.6400  -25.8290  -13.7240 C   0  0  0  0  0  2  0  0  0  0  0  0
   15.2990  -23.2560  -12.6470 C   0  0  0  0  0  0  0  0  0  0  0  0
   16.3450  -23.4800  -11.7290 C   0  0  0  0  0  3  0  0  0  0  0  0
   17.4270  -24.3090  -12.0740 C   0  0  0  0  0  3  0  0  0  0  0  0
   15.3490  -23.8660  -13.9190 C   0  0  0  0  0  3  0  0  0  0  0  0
   16.4340  -24.6940  -14.2640 C   0  0  0  0  0  3  0  0  0  0  0  0
   17.4770  -24.9210  -13.3450 C   0  0  0  0  0  0  0  0  0  0  0  0
   12.1640  -23.7350  -13.2440 C   0  0  0  0  0  1  0  0  0  0  0  0
   12.8310  -22.6030  -12.4880 C   0  0  0  0  0  0  0  0  0  0  0  0
   12.0220  -21.6490  -11.9070 N   0  0  0  0  0  0  0  0  0  0  0  0
   12.6700  -20.7090  -11.0010 C   0  0  0  0  0  2  0  0  0  0  0  0
   14.4360  -20.9770  -11.3210 S   0  0  0  0  0  0  0  0  0  0  0  0
   14.1380  -22.4480  -12.2330 C   0  0  0  0  0  0  0  0  0  0  0  0
   11.0070  -21.6980  -11.9190 H   0  0  0  0  0  0  0  0  0  0  0  0
   23.3820  -22.4380  -10.6480 O   0  0  0  0  0  0  0  0  0  0  0  0
   23.5830  -23.3580  -10.7810 H   0  0  0  0  0  0  0  0  0  0  0  0
   24.6270  -22.9280  -16.7220 C   0  0  1  0  0  0  0  0  0  0  0  0
   25.9190  -22.2710  -17.2660 C   0  0  0  0  0  1  0  0  0  0  0  0
   24.1460  -23.9650  -17.7680 C   0  0  0  0  0  1  0  0  0  0  0  0
   23.5600  -21.8240  -16.6190 C   0  0  0  0  0  1  0  0  0  0  0  0
  1  9  1  0
  2 10  1  0
  2  1  1  0
  3  8  1  0
  4  6  1  0
  5  7  1  0
  6 14  1  0
  6  3  1  0
  7  8  1  0
  7 41  1  0
  9 12  1  0
 11  4  1  0
 12  5  1  0
 13 10  1  0
 13 11  1  0
 14 15  1  0
 15 16  2  0
 17 15  1  0
 18 17  1  0
 18 19  1  0
 19 33  2  0
 20 18  1  0
 20 25  1  0
 21 22  1  0
 21 20  2  0
 22 23  2  0
 23 25  1  0
 23 24  1  0
 25 26  1  0
 26 32  2  0
 26 27  1  0
 27 28  1  0
 28 29  1  0
 30 31  1  0
 30 28  2  0
 32 30  1  0
 33 34  1  0
 33 32  1  0
 34 35  1  0
 35 36  2  0
 37 38  1  0
 37 36  1  0
 39 37  2  0
 40 39  1  0
 40 34  2  0
 41 43  1  0
 42 46  1  0
 42 43  1  0
 43 44  2  0
 45 42  1  0
 46 52  1  0
 47 55  1  0
 47 48  1  0
 48 49  1  0
 49 72  1  0
 50 49  1  0
 51 50  1  0
 51 47  1  0
 52 51  1  0
 53 52  2  0
 54 57  1  0
 55 54  1  0
 56 55  2  0
 58 64  1  0
 58 54  1  0
 59 70  1  0
 59 60  1  0
 61 60  2  0
 62 59  2  0
 63 62  1  0
 63 64  2  0
 64 61  1  0
 65 66  1  0
 66 70  2  0
 66 67  1  0
 67 68  1  0
 69 68  1  0
 70 69  1  0
 71 67  1  0
 73 72  1  0
 74 77  1  1
 74 46  1  0
 75 74  1  0
 76 74  1  0
M  ISO  4  14 100  15 100  41 101  43 101
M  END
>  <TORSDO>  (160) 
F 15

>  <SCORE>  (160) 
-14.960

>  <name>  (160) 
159

>  <ligand_id>  (160) 
159

>  <original_smiles>  (160) 
[H]OC1([H])C([H])([H])N(C(=O)C([H])(N([H])C(=O)OC2([H])OC([H])([H])C([H])(OC(=O)C([H])([H])C3([H])N=C(c4c([H])c([H])c(Cl)c([H])c4[H])c4c(sc(C([H])([H])[H])c4C([H])([H])[H])-n4c(C([H])([H])[H])nnc43)C([H])([H])OOOC([H])([H])C([H])([H])OOC2([H])[H])C(C([H])([H])[H])(C([H])([H])[H])C([H])([H])[H])C([H])(C(=O)N([H])C([H])([H])c2c([H])c([H])c(C3=C(C([H])([H])[H])N([H])C([H])([H])S3)c([H])c2[H])C1([H])[H]

>  <smiles>  (160) 
[H]OC1([H])C([H])([H])N(C(=O)C([H])(N([H])C(=O)OC2([H])OC([H])([H])C([H])(OC(=O)C([H])([H])C3([H])N=C(c4c([H])c([H])c(Cl)c([H])c4[H])c4c(sc(C([H])([H])[H])c4C([H])([H])[H])-n4c(C([H])([H])[H])nnc43)C([H])([H])OOOC([H])([H])C([H])([H])OOC2([H])[H])C(C([H])([H])[H])(C([H])([H])[H])C([H])([H])[H])C([H])(C(=O)N([H])C([H])([H])c2c([H])c([H])c(C3=C(C([H])([H])[H])N([H])C([H])([H])S3)c([H])c2[H])C1([H])[H]

$$$$
160:0:0
     RDKit          3D

 75 82  0  0  1  0  0  0  0  0999 V2000
   25.9010  -24.7000  -15.4600 N   0  0  0  0  0  0  0  0  0  0  0  0
   26.6830  -25.2950  -14.5720 C   0  0  0  0  0  0  0  0  0  0  0  0
   27.2130  -24.7040  -13.6230 O   0  0  0  0  0  0  0  0  0  0  0  0
   26.6690  -26.6390  -14.7700 N   0  0  0  0  0  0  0  0  0  0  0  0
   25.5780  -25.3500  -16.1570 H   0  0  0  0  0  0  0  0  0  0  0  0
   27.2210  -27.1540  -14.0950 H   0  0  0  0  0  0  0  0  0  0  0  0
   25.3250  -27.5260  -16.4700 C   0  0  0  0  0  2  0  0  0  0  0  0
   25.5320  -27.3240  -15.2060 N   0  0  0  0  0  2  0  0  0  0  0  0
   23.8860  -27.7470  -18.5720 C   0  0  0  0  0  0  0  0  0  0  0  0
   22.7750  -28.6650  -19.0790 C   0  0  0  0  0  2  0  0  0  0  0  0
   23.1810  -29.0470  -16.7330 C   0  0  0  0  0  2  0  0  0  0  0  0
   23.9220  -27.7360  -17.0490 C   0  0  0  0  0  3  0  0  0  0  0  0
   22.0720  -29.2130  -17.8120 C   0  0  1  0  0  0  0  0  0  0  0  0
   20.8390  -28.3290  -17.4900 C   0  0  0  0  0  1  0  0  0  0  0  0
   24.6360  -27.1060  -19.3130 O   0  0  0  0  0  0  0  0  0  0  0  0
   20.8980  -31.4420  -17.2870 C   0  0  0  0  0  0  0  0  0  0  0  0
   20.1950  -31.0100  -16.3760 O   0  0  0  0  0  0  0  0  0  0  0  0
   21.7110  -30.6420  -18.0170 N   0  0  0  0  0  0  0  0  0  0  0  0
   22.2590  -31.1290  -18.7140 H   0  0  0  0  0  0  0  0  0  0  0  0
   21.0000  -32.9670  -17.4950 C   0  0  0  0  0  2  0  0  0  0  0  0
   21.4710  -33.6760  -16.1910 C   0  0  0  0  0  3  0  0  0  0  0  0
   22.7980  -33.1670  -15.8420 N   0  0  0  0  0  0  0  0  0  0  0  0
   21.5130  -35.1960  -16.2470 C   0  0  0  0  0  0  0  0  0  0  0  0
   21.3230  -35.9660  -17.3260 N   0  0  0  0  0  0  0  0  0  0  0  0
   21.5580  -37.2630  -16.9070 N   0  0  0  0  0  0  0  0  0  0  0  0
   21.8780  -37.1760  -15.6130 C   0  0  0  0  0  0  0  0  0  0  0  0
   22.2710  -38.3560  -14.7770 C   0  0  0  0  0  1  0  0  0  0  0  0
   21.8350  -35.9080  -15.1460 N   0  0  0  0  0  0  0  0  0  0  0  0
   22.0610  -35.4000  -13.8490 C   0  0  0  0  0  0  0  0  0  0  0  0
   21.5280  -36.1360  -12.3710 S   0  0  0  0  0  0  0  0  0  0  0  0
   22.1210  -34.7920  -11.4350 C   0  0  0  0  0  0  0  0  0  0  0  0
   21.9560  -34.8020   -9.9480 C   0  0  0  0  0  1  0  0  0  0  0  0
   22.6830  -33.8160  -12.2290 C   0  0  0  0  0  0  0  0  0  0  0  0
   23.2060  -32.5170  -11.6670 C   0  0  0  0  0  1  0  0  0  0  0  0
   22.6850  -34.1940  -13.6180 C   0  0  0  0  0  0  0  0  0  0  0  0
   23.3190  -33.3700  -14.6920 C   0  0  0  0  0  0  0  0  0  0  0  0
   24.6420  -32.7690  -14.4290 C   0  0  0  0  0  0  0  0  0  0  0  0
   25.6720  -33.5270  -13.8360 C   0  0  0  0  0  3  0  0  0  0  0  0
   26.9210  -32.9320  -13.5750 C   0  0  0  0  0  3  0  0  0  0  0  0
   27.1490  -31.5860  -13.9220 C   0  0  0  0  0  0  0  0  0  0  0  0
   28.6740  -30.8510  -13.6020 Cl  0  0  0  0  0  0  0  0  0  0  0  0
   26.1210  -30.8300  -14.5090 C   0  0  0  0  0  3  0  0  0  0  0  0
   24.8670  -31.4170  -14.7390 C   0  0  0  0  0  3  0  0  0  0  0  0
   24.9630  -23.6130  -15.2430 C   0  0  0  0  0  3  0  0  0  0  0  0
   21.8750  -23.9730  -12.8260 C   0  0  0  0  0  3  0  0  0  0  0  0
   21.4350  -22.7730  -11.9730 C   0  0  0  0  0  2  0  0  0  0  0  0
   22.7110  -21.9900  -11.7430 C   0  0  0  0  0  3  0  0  0  0  0  0
   23.5680  -22.2570  -12.9800 C   0  0  0  0  0  2  0  0  0  0  0  0
   23.0710  -23.5100  -13.5600 N   0  0  0  0  0  0  0  0  0  0  0  0
   23.6980  -24.2050  -14.5390 C   0  0  0  0  0  0  0  0  0  0  0  0
   23.3060  -25.3270  -14.8710 O   0  0  0  0  0  0  0  0  0  0  0  0
   19.8990  -25.3670  -13.1480 N   0  0  0  0  0  0  0  0  0  0  0  0
   20.6920  -24.4390  -13.6920 C   0  0  0  0  0  0  0  0  0  0  0  0
   20.4720  -23.9260  -14.7920 O   0  0  0  0  0  0  0  0  0  0  0  0
   20.1640  -25.7480  -12.2490 H   0  0  0  0  0  0  0  0  0  0  0  0
   18.6220  -25.8060  -13.6940 C   0  0  0  0  0  2  0  0  0  0  0  0
   15.3080  -23.1900  -12.6290 C   0  0  0  0  0  0  0  0  0  0  0  0
   16.3510  -23.4230  -11.7090 C   0  0  0  0  0  3  0  0  0  0  0  0
   17.4240  -24.2640  -12.0500 C   0  0  0  0  0  3  0  0  0  0  0  0
   15.3530  -23.8080  -13.8970 C   0  0  0  0  0  3  0  0  0  0  0  0
   16.4280  -24.6500  -14.2390 C   0  0  0  0  0  3  0  0  0  0  0  0
   17.4700  -24.8850  -13.3180 C   0  0  0  0  0  0  0  0  0  0  0  0
   12.1680  -23.6420  -13.2140 C   0  0  0  0  0  1  0  0  0  0  0  0
   12.8490  -22.5120  -12.4700 C   0  0  0  0  0  0  0  0  0  0  0  0
   12.0510  -21.5440  -11.8940 N   0  0  0  0  0  0  0  0  0  0  0  0
   12.7120  -20.6010  -10.9980 C   0  0  0  0  0  2  0  0  0  0  0  0
   14.4730  -20.8890  -11.3220 S   0  0  0  0  0  0  0  0  0  0  0  0
   14.1580  -22.3670  -12.2200 C   0  0  0  0  0  0  0  0  0  0  0  0
   11.0360  -21.5840  -11.9010 H   0  0  0  0  0  0  0  0  0  0  0  0
   23.3920  -22.4780  -10.5980 O   0  0  0  0  0  0  0  0  0  0  0  0
   23.5910  -23.3980  -10.7350 H   0  0  0  0  0  0  0  0  0  0  0  0
   24.6640  -22.9950  -16.6550 C   0  0  1  0  0  0  0  0  0  0  0  0
   25.9590  -22.3430  -17.1930 C   0  0  0  0  0  1  0  0  0  0  0  0
   24.1940  -24.0320  -17.7040 C   0  0  0  0  0  1  0  0  0  0  0  0
   23.5950  -21.8880  -16.5730 C   0  0  0  0  0  1  0  0  0  0  0  0
  1 44  1  0
  1  2  1  0
  2  3  2  0
  4  2  1  0
  4  6  1  0
  5  1  1  0
  7  8  1  0
  8  4  1  0
  9 12  1  0
 10  9  1  0
 10 13  1  0
 12 11  1  0
 12  7  1  0
 13 14  1  1
 13 11  1  0
 15  9  2  0
 16 17  2  0
 18 13  1  0
 18 16  1  0
 19 18  1  0
 20 16  1  0
 21 20  1  0
 21 22  1  0
 22 36  2  0
 23 21  1  0
 23 28  1  0
 24 25  1  0
 24 23  2  0
 25 26  2  0
 26 28  1  0
 26 27  1  0
 28 29  1  0
 29 35  2  0
 29 30  1  0
 30 31  1  0
 31 32  1  0
 33 34  1  0
 33 31  2  0
 35 33  1  0
 36 37  1  0
 36 35  1  0
 37 38  1  0
 38 39  2  0
 40 41  1  0
 40 39  1  0
 42 40  2  0
 43 42  1  0
 43 37  2  0
 44 50  1  0
 45 53  1  0
 45 46  1  0
 46 47  1  0
 47 70  1  0
 48 47  1  0
 49 48  1  0
 49 45  1  0
 50 49  1  0
 51 50  2  0
 52 55  1  0
 53 52  1  0
 54 53  2  0
 56 62  1  0
 56 52  1  0
 57 68  1  0
 57 58  1  0
 59 58  2  0
 60 57  2  0
 61 60  1  0
 61 62  2  0
 62 59  1  0
 63 64  1  0
 64 68  2  0
 64 65  1  0
 65 66  1  0
 67 66  1  0
 68 67  1  0
 69 65  1  0
 71 70  1  0
 72 75  1  1
 72 44  1  0
 73 72  1  0
 74 72  1  0
M  ISO  4   2 101   4 101  16 100  18 100
M  END
>  <TORSDO>  (161) 
F 14

>  <SCORE>  (161) 
-15.153

>  <name>  (161) 
160

>  <ligand_id>  (161) 
160

>  <original_smiles>  (161) 
[H]OC1([H])C([H])([H])N(C(=O)C([H])(N([H])C(=O)N([H])N=C([H])C2([H])C(=O)C([H])([H])C(N([H])C(=O)C([H])([H])C3([H])N=C(c4c([H])c([H])c(Cl)c([H])c4[H])c4c(sc(C([H])([H])[H])c4C([H])([H])[H])-n4c(C([H])([H])[H])nnc43)(C([H])([H])[H])C2([H])[H])C(C([H])([H])[H])(C([H])([H])[H])C([H])([H])[H])C([H])(C(=O)N([H])C([H])([H])c2c([H])c([H])c(C3=C(C([H])([H])[H])N([H])C([H])([H])S3)c([H])c2[H])C1([H])[H]

>  <smiles>  (161) 
[H]OC1([H])C([H])([H])N(C(=O)C([H])(N([H])C(=O)N([H])N=C([H])C2([H])C(=O)C([H])([H])C(N([H])C(=O)C([H])([H])C3([H])N=C(c4c([H])c([H])c(Cl)c([H])c4[H])c4c(sc(C([H])([H])[H])c4C([H])([H])[H])-n4c(C([H])([H])[H])nnc43)(C([H])([H])[H])C2([H])[H])C(C([H])([H])[H])(C([H])([H])[H])C([H])([H])[H])C([H])(C(=O)N([H])C([H])([H])c2c([H])c([H])c(C3=C(C([H])([H])[H])N([H])C([H])([H])S3)c([H])c2[H])C1([H])[H]

$$$$
161:0:0
     RDKit          3D

 75 81  0  0  1  0  0  0  0  0999 V2000
   25.8630  -24.7070  -15.4780 N   0  0  0  0  0  0  0  0  0  0  0  0
   26.6170  -25.3150  -14.5750 C   0  0  0  0  0  0  0  0  0  0  0  0
   27.1820  -24.7080  -13.6550 O   0  0  0  0  0  0  0  0  0  0  0  0
   26.5850  -26.6620  -14.7270 N   0  0  0  0  0  0  0  0  0  0  0  0
   25.6180  -25.2520  -16.2870 H   0  0  0  0  0  0  0  0  0  0  0  0
   26.9910  -27.3030  -14.0590 H   0  0  0  0  0  0  0  0  0  0  0  0
   25.6630  -28.2290  -16.3430 C   0  0  0  0  0  2  0  0  0  0  0  0
   23.3670  -29.1780  -16.9470 C   0  0  0  0  0  0  0  0  0  0  0  0
   24.8030  -29.0530  -17.0120 N   0  0  0  0  0  0  0  0  0  0  0  0
   22.8950  -30.3160  -17.5150 N   0  0  0  0  0  0  0  0  0  0  0  0
   25.4510  -27.2990  -15.3710 N   0  0  0  0  0  0  0  0  0  0  0  0
   22.6810  -28.3250  -16.3770 O   0  0  0  0  0  0  0  0  0  0  0  0
   25.3230  -29.6930  -17.5890 H   0  0  0  0  0  0  0  0  0  0  0  0
   23.5030  -31.0250  -17.9020 H   0  0  0  0  0  0  0  0  0  0  0  0
   24.5180  -26.9990  -15.0840 H   0  0  0  0  0  0  0  0  0  0  0  0
   20.8270  -31.4550  -17.0200 C   0  0  0  0  0  0  0  0  0  0  0  0
   20.2260  -31.0210  -16.0370 O   0  0  0  0  0  0  0  0  0  0  0  0
   21.5150  -30.6150  -17.8260 N   0  0  0  0  0  0  0  0  0  0  0  0
   21.5280  -30.8960  -18.7990 H   0  0  0  0  0  0  0  0  0  0  0  0
   20.9140  -32.9830  -17.2480 C   0  0  0  0  0  2  0  0  0  0  0  0
   21.3690  -33.7300  -15.9560 C   0  0  0  0  0  3  0  0  0  0  0  0
   22.6980  -33.2380  -15.5870 N   0  0  0  0  0  0  0  0  0  0  0  0
   21.4000  -35.2530  -16.0340 C   0  0  0  0  0  0  0  0  0  0  0  0
   21.2130  -36.0050  -17.1250 N   0  0  0  0  0  0  0  0  0  0  0  0
   21.4330  -37.3110  -16.7240 N   0  0  0  0  0  0  0  0  0  0  0  0
   21.7430  -37.2460  -15.4260 C   0  0  0  0  0  0  0  0  0  0  0  0
   22.1210  -38.4460  -14.6080 C   0  0  0  0  0  1  0  0  0  0  0  0
   21.7060  -35.9860  -14.9420 N   0  0  0  0  0  0  0  0  0  0  0  0
   21.9240  -35.5010  -13.6360 C   0  0  0  0  0  0  0  0  0  0  0  0
   21.3740  -36.2580  -12.1740 S   0  0  0  0  0  0  0  0  0  0  0  0
   21.9700  -34.9350  -11.2100 C   0  0  0  0  0  0  0  0  0  0  0  0
   21.7940  -34.9680   -9.7260 C   0  0  0  0  0  1  0  0  0  0  0  0
   22.5470  -33.9510  -11.9830 C   0  0  0  0  0  0  0  0  0  0  0  0
   23.0780  -32.6670  -11.3960 C   0  0  0  0  0  1  0  0  0  0  0  0
   22.5570  -34.3040  -13.3800 C   0  0  0  0  0  0  0  0  0  0  0  0
   23.2050  -33.4650  -14.4350 C   0  0  0  0  0  0  0  0  0  0  0  0
   24.5300  -32.8760  -14.1550 C   0  0  0  0  0  0  0  0  0  0  0  0
   25.5570  -33.6630  -13.5950 C   0  0  0  0  0  3  0  0  0  0  0  0
   26.8100  -33.0860  -13.3110 C   0  0  0  0  0  3  0  0  0  0  0  0
   27.0410  -31.7270  -13.5920 C   0  0  0  0  0  0  0  0  0  0  0  0
   28.5700  -31.0130  -13.2490 Cl  0  0  0  0  0  0  0  0  0  0  0  0
   26.0140  -30.9410  -14.1420 C   0  0  0  0  0  3  0  0  0  0  0  0
   24.7600  -31.5120  -14.4170 C   0  0  0  0  0  3  0  0  0  0  0  0
   24.9370  -23.6110  -15.2330 C   0  0  0  0  0  3  0  0  0  0  0  0
   21.8390  -23.9340  -12.8180 C   0  0  0  0  0  3  0  0  0  0  0  0
   21.3890  -22.7170  -11.9930 C   0  0  0  0  0  2  0  0  0  0  0  0
   22.6580  -21.9200  -11.7750 C   0  0  0  0  0  3  0  0  0  0  0  0
   23.5220  -22.2130  -13.0030 C   0  0  0  0  0  2  0  0  0  0  0  0
   23.0360  -23.4810  -13.5580 N   0  0  0  0  0  0  0  0  0  0  0  0
   23.6800  -24.1990  -14.5120 C   0  0  0  0  0  0  0  0  0  0  0  0
   23.3340  -25.3540  -14.8010 O   0  0  0  0  0  0  0  0  0  0  0  0
   19.8730  -25.3450  -13.1250 N   0  0  0  0  0  0  0  0  0  0  0  0
   20.6640  -24.4210  -13.6820 C   0  0  0  0  0  0  0  0  0  0  0  0
   20.4490  -23.9280  -14.7920 O   0  0  0  0  0  0  0  0  0  0  0  0
   20.1330  -25.7060  -12.2170 H   0  0  0  0  0  0  0  0  0  0  0  0
   18.6040  -25.8040  -13.6740 C   0  0  0  0  0  2  0  0  0  0  0  0
   15.2610  -23.2110  -12.6430 C   0  0  0  0  0  0  0  0  0  0  0  0
   16.3000  -23.4300  -11.7150 C   0  0  0  0  0  3  0  0  0  0  0  0
   17.3820  -24.2630  -12.0450 C   0  0  0  0  0  3  0  0  0  0  0  0
   15.3190  -23.8320  -13.9080 C   0  0  0  0  0  3  0  0  0  0  0  0
   16.4030  -24.6670  -14.2380 C   0  0  0  0  0  3  0  0  0  0  0  0
   17.4400  -24.8880  -13.3100 C   0  0  0  0  0  0  0  0  0  0  0  0
   12.1300  -23.6870  -13.2620 C   0  0  0  0  0  1  0  0  0  0  0  0
   12.7940  -22.5520  -12.5090 C   0  0  0  0  0  0  0  0  0  0  0  0
   11.9840  -21.5900  -11.9420 N   0  0  0  0  0  0  0  0  0  0  0  0
   12.6280  -20.6450  -11.0360 C   0  0  0  0  0  2  0  0  0  0  0  0
   14.3940  -20.9200  -11.3410 S   0  0  0  0  0  0  0  0  0  0  0  0
   14.0990  -22.3980  -12.2440 C   0  0  0  0  0  0  0  0  0  0  0  0
   10.9680  -21.6370  -11.9620 H   0  0  0  0  0  0  0  0  0  0  0  0
   23.3330  -22.3780  -10.6140 O   0  0  0  0  0  0  0  0  0  0  0  0
   23.5300  -23.3030  -10.7230 H   0  0  0  0  0  0  0  0  0  0  0  0
   24.6370  -22.9810  -16.6370 C   0  0  1  0  0  0  0  0  0  0  0  0
   25.9360  -22.3400  -17.1810 C   0  0  0  0  0  1  0  0  0  0  0  0
   24.1420  -24.0200  -17.6770 C   0  0  0  0  0  1  0  0  0  0  0  0
   23.5830  -21.8620  -16.5420 C   0  0  0  0  0  1  0  0  0  0  0  0
  1 44  1  0
  1  2  1  0
  2  3  2  0
  4  2  1  0
  4  6  1  0
  5  1  1  0
  7 11  1  0
  8 12  2  0
  9  8  1  0
  9  7  1  0
 10  8  1  0
 11 15  1  0
 11  4  1  0
 13  9  1  0
 14 10  1  0
 16 17  2  0
 18 10  1  0
 18 16  1  0
 19 18  1  0
 20 16  1  0
 21 20  1  0
 21 22  1  0
 22 36  2  0
 23 21  1  0
 23 28  1  0
 24 25  1  0
 24 23  2  0
 25 26  2  0
 26 28  1  0
 26 27  1  0
 28 29  1  0
 29 35  2  0
 29 30  1  0
 30 31  1  0
 31 32  1  0
 33 34  1  0
 33 31  2  0
 35 33  1  0
 36 37  1  0
 36 35  1  0
 37 38  1  0
 38 39  2  0
 40 39  1  0
 40 41  1  0
 42 40  2  0
 43 37  2  0
 43 42  1  0
 44 50  1  0
 45 53  1  0
 45 46  1  0
 46 47  1  0
 47 70  1  0
 48 47  1  0
 49 48  1  0
 49 45  1  0
 50 49  1  0
 51 50  2  0
 52 55  1  0
 53 52  1  0
 54 53  2  0
 56 62  1  0
 56 52  1  0
 57 68  1  0
 57 58  1  0
 59 58  2  0
 60 57  2  0
 61 60  1  0
 61 62  2  0
 62 59  1  0
 63 64  1  0
 64 68  2  0
 64 65  1  0
 65 66  1  0
 67 66  1  0
 68 67  1  0
 69 65  1  0
 71 70  1  0
 72 75  1  1
 72 44  1  0
 73 72  1  0
 74 72  1  0
M  ISO  4   2 101   4 101  16 100  18 100
M  END
>  <TORSDO>  (162) 
F 13

>  <SCORE>  (162) 
-15.045

>  <name>  (162) 
161

>  <ligand_id>  (162) 
161

>  <original_smiles>  (162) 
[H]OC1([H])C([H])([H])N(C(=O)C([H])(N([H])C(=O)N([H])[N+]([H])=C([H])N([H])C(=O)N([H])N([H])C(=O)C([H])([H])C2([H])N=C(c3c([H])c([H])c(Cl)c([H])c3[H])c3c(sc(C([H])([H])[H])c3C([H])([H])[H])-n3c(C([H])([H])[H])nnc32)C(C([H])([H])[H])(C([H])([H])[H])C([H])([H])[H])C([H])(C(=O)N([H])C([H])([H])c2c([H])c([H])c(C3=C(C([H])([H])[H])N([H])C([H])([H])S3)c([H])c2[H])C1([H])[H]

>  <smiles>  (162) 
[H]OC1([H])C([H])([H])N(C(=O)C([H])(N([H])C(=O)N([H])[N+]([H])=C([H])N([H])C(=O)N([H])N([H])C(=O)C([H])([H])C2([H])N=C(c3c([H])c([H])c(Cl)c([H])c3[H])c3c(sc(C([H])([H])[H])c3C([H])([H])[H])-n3c(C([H])([H])[H])nnc32)C(C([H])([H])[H])(C([H])([H])[H])C([H])([H])[H])C([H])(C(=O)N([H])C([H])([H])c2c([H])c([H])c(C3=C(C([H])([H])[H])N([H])C([H])([H])S3)c([H])c2[H])C1([H])[H]

$$$$
162:0:0
     RDKit          3D

 82 88  0  0  1  0  0  0  0  0999 V2000
   24.6000  -28.0630  -18.5020 C   0  0  0  0  0  0  0  0  0  0  0  0
   26.2200  -27.4220  -16.7350 C   0  0  0  0  0  0  0  0  0  0  0  0
   23.6290  -28.8960  -18.6640 N   0  0  0  0  0  2  0  0  0  0  0  0
   25.1980  -27.2690  -19.4740 N   0  0  0  0  0  4  0  0  0  0  0  0
   25.0480  -27.8920  -17.1920 N   0  0  0  0  0  0  0  0  0  0  0  0
   26.2190  -27.3080  -15.4020 N   0  0  0  0  0  0  0  0  0  0  0  0
   27.1740  -27.0540  -17.4280 O   0  0  0  0  0  0  0  0  0  0  0  0
   25.0040  -27.2080  -20.4630 H   0  0  0  0  0  0  0  0  0  0  0  0
   26.0310  -26.7290  -19.2650 H   0  0  0  0  0  0  0  0  0  0  0  0
   24.4180  -28.2170  -16.4740 H   0  0  0  0  0  0  0  0  0  0  0  0
   25.4210  -27.4840  -14.8040 H   0  0  0  0  0  0  0  0  0  0  0  0
   26.0920  -24.6910  -15.2950 N   0  0  0  0  0  0  0  0  0  0  0  0
   27.0070  -25.2340  -14.4860 C   0  0  0  0  0  0  0  0  0  0  0  0
   27.5350  -24.6400  -13.5500 O   0  0  0  0  0  0  0  0  0  0  0  0
   27.2100  -26.5340  -14.7280 N   0  0  0  0  0  0  0  0  0  0  0  0
   25.7680  -25.2930  -16.0300 H   0  0  0  0  0  0  0  0  0  0  0  0
   27.8450  -27.1050  -14.1890 H   0  0  0  0  0  0  0  0  0  0  0  0
   25.2230  -23.5550  -15.0270 C   0  0  0  0  0  3  0  0  0  0  0  0
   21.9400  -23.8370  -12.8710 C   0  0  0  0  0  3  0  0  0  0  0  0
   21.4020  -22.5930  -12.1420 C   0  0  0  0  0  2  0  0  0  0  0  0
   22.6360  -21.7630  -11.8590 C   0  0  0  0  0  3  0  0  0  0  0  0
   23.6020  -22.0930  -12.9970 C   0  0  0  0  0  2  0  0  0  0  0  0
   23.1860  -23.3980  -13.5300 N   0  0  0  0  0  0  0  0  0  0  0  0
   23.9170  -24.1410  -14.4010 C   0  0  0  0  0  0  0  0  0  0  0  0
   23.6070  -25.3060  -14.6780 O   0  0  0  0  0  0  0  0  0  0  0  0
   20.0810  -25.3590  -13.2930 N   0  0  0  0  0  0  0  0  0  0  0  0
   20.8510  -24.3910  -13.8040 C   0  0  0  0  0  0  0  0  0  0  0  0
   20.6740  -23.9120  -14.9250 O   0  0  0  0  0  0  0  0  0  0  0  0
   20.3100  -25.7060  -12.3710 H   0  0  0  0  0  0  0  0  0  0  0  0
   18.8730  -25.8870  -13.9110 C   0  0  0  0  0  2  0  0  0  0  0  0
   15.3020  -23.6010  -12.9200 C   0  0  0  0  0  0  0  0  0  0  0  0
   16.3320  -23.7510  -11.9690 C   0  0  0  0  0  3  0  0  0  0  0  0
   17.4880  -24.4870  -12.2860 C   0  0  0  0  0  3  0  0  0  0  0  0
   15.4390  -24.1930  -14.1920 C   0  0  0  0  0  3  0  0  0  0  0  0
   16.5980  -24.9300  -14.5090 C   0  0  0  0  0  3  0  0  0  0  0  0
   17.6290  -25.0810  -13.5610 C   0  0  0  0  0  0  0  0  0  0  0  0
   12.2340  -24.3400  -13.5970 C   0  0  0  0  0  1  0  0  0  0  0  0
   12.7850  -23.1570  -12.8260 C   0  0  0  0  0  0  0  0  0  0  0  0
   11.8850  -22.2750  -12.2640 N   0  0  0  0  0  0  0  0  0  0  0  0
   12.4300  -21.2860  -11.3420 C   0  0  0  0  0  2  0  0  0  0  0  0
   14.2180  -21.4050  -11.6190 S   0  0  0  0  0  0  0  0  0  0  0  0
   14.0670  -22.8940  -12.5380 C   0  0  0  0  0  0  0  0  0  0  0  0
   10.8800  -22.4080  -12.3020 H   0  0  0  0  0  0  0  0  0  0  0  0
   23.2190  -22.1530  -10.6230 O   0  0  0  0  0  0  0  0  0  0  0  0
   23.4460  -23.0760  -10.6700 H   0  0  0  0  0  0  0  0  0  0  0  0
   24.9900  -22.7940  -16.3870 C   0  0  1  0  0  0  0  0  0  0  0  0
   26.3200  -22.1260  -16.8130 C   0  0  0  0  0  1  0  0  0  0  0  0
   24.5430  -23.7130  -17.5520 C   0  0  0  0  0  1  0  0  0  0  0  0
   23.9480  -21.6640  -16.2270 C   0  0  0  0  0  1  0  0  0  0  0  0
   23.2380  -29.0310  -20.0030 N   0  0  0  0  0  4  0  0  0  0  0  0
   23.5370  -28.1790  -20.4490 H   0  0  0  0  0  0  0  0  0  0  0  0
   23.7770  -29.7860  -20.3950 H   0  0  0  0  0  0  0  0  0  0  0  0
   21.7940  -29.2520  -20.2390 C   0  0  0  0  0  2  0  0  0  0  0  0
   21.2340  -30.5150  -19.5380 C   0  0  0  0  0  2  0  0  0  0  0  0
   20.5250  -31.0940  -17.1750 C   0  0  0  0  0  0  0  0  0  0  0  0
   20.1480  -30.6570  -16.0880 O   0  0  0  0  0  0  0  0  0  0  0  0
   20.8060  -30.2310  -18.1650 N   0  0  0  0  0  0  0  0  0  0  0  0
   20.7150  -29.2520  -17.9290 H   0  0  0  0  0  0  0  0  0  0  0  0
   20.7020  -32.6150  -17.3710 C   0  0  0  0  0  2  0  0  0  0  0  0
   21.2640  -33.3430  -16.1170 C   0  0  0  0  0  3  0  0  0  0  0  0
   22.5970  -32.8200  -15.8080 N   0  0  0  0  0  0  0  0  0  0  0  0
   21.3300  -34.8570  -16.2560 C   0  0  0  0  0  0  0  0  0  0  0  0
   21.0980  -35.5680  -17.3650 N   0  0  0  0  0  0  0  0  0  0  0  0
   21.3610  -36.8820  -17.0310 N   0  0  0  0  0  0  0  0  0  0  0  0
   21.7390  -36.8640  -15.7490 C   0  0  0  0  0  0  0  0  0  0  0  0
   22.1760  -38.0890  -15.0020 C   0  0  0  0  0  1  0  0  0  0  0  0
   21.7110  -35.6240  -15.2150 N   0  0  0  0  0  0  0  0  0  0  0  0
   21.9900  -35.1840  -13.9070 C   0  0  0  0  0  0  0  0  0  0  0  0
   21.5290  -36.0070  -12.4500 S   0  0  0  0  0  0  0  0  0  0  0  0
   22.1560  -34.7140  -11.4690 C   0  0  0  0  0  0  0  0  0  0  0  0
   22.0630  -34.8070   -9.9800 C   0  0  0  0  0  1  0  0  0  0  0  0
   22.6750  -33.6890  -12.2310 C   0  0  0  0  0  0  0  0  0  0  0  0
   23.2170  -32.4230  -11.6190 C   0  0  0  0  0  1  0  0  0  0  0  0
   22.6120  -33.9830  -13.6410 C   0  0  0  0  0  0  0  0  0  0  0  0
   23.1810  -33.0840  -14.6990 C   0  0  0  0  0  0  0  0  0  0  0  0
   24.5130  -32.4820  -14.4730 C   0  0  0  0  0  0  0  0  0  0  0  0
   25.5520  -33.2500  -13.9020 C   0  0  0  0  0  3  0  0  0  0  0  0
   26.8110  -32.6700  -13.6600 C   0  0  0  0  0  3  0  0  0  0  0  0
   27.0360  -31.3220  -13.9870 C   0  0  0  0  0  0  0  0  0  0  0  0
   28.5710  -30.6000  -13.6920 Cl  0  0  0  0  0  0  0  0  0  0  0  0
   26.0060  -30.5600  -14.5620 C   0  0  0  0  0  3  0  0  0  0  0  0
   24.7460  -31.1330  -14.8130 C   0  0  0  0  0  3  0  0  0  0  0  0
  1  5  1  0
  2  6  1  0
  3  1  1  0
  4  9  1  0
  4  1  2  0
  5  2  1  0
  5 10  1  0
  6 11  1  0
  6 15  1  0
  7  2  2  0
  8  4  1  0
 12 18  1  0
 12 13  1  0
 13 14  2  0
 15 13  1  0
 15 17  1  0
 16 12  1  0
 18 24  1  0
 19 27  1  0
 19 20  1  0
 20 21  1  0
 21 44  1  0
 22 21  1  0
 23 22  1  0
 23 19  1  0
 24 23  1  0
 25 24  2  0
 26 29  1  0
 27 26  1  0
 28 27  2  0
 30 36  1  0
 30 26  1  0
 31 42  1  0
 31 32  1  0
 33 32  2  0
 34 31  2  0
 35 34  1  0
 35 36  2  0
 36 33  1  0
 37 38  1  0
 38 42  2  0
 38 39  1  0
 39 40  1  0
 41 40  1  0
 42 41  1  0
 43 39  1  0
 45 44  1  0
 46 49  1  1
 46 18  1  0
 47 46  1  0
 48 46  1  0
 50  3  1  0
 51 50  1  0
 52 50  1  0
 53 50  1  0
 53 54  1  0
 54 57  1  0
 55 56  2  0
 57 58  1  0
 57 55  1  0
 59 55  1  0
 60 59  1  0
 60 61  1  0
 61 75  2  0
 62 60  1  0
 62 67  1  0
 63 64  1  0
 63 62  2  0
 64 65  2  0
 65 67  1  0
 65 66  1  0
 67 68  1  0
 68 74  2  0
 68 69  1  0
 69 70  1  0
 70 71  1  0
 72 73  1  0
 72 70  2  0
 74 72  1  0
 75 76  1  0
 75 74  1  0
 76 77  1  0
 77 78  2  0
 79 80  1  0
 79 78  1  0
 81 79  2  0
 82 81  1  0
 82 76  2  0
M  ISO  4  13 101  15 101  55 100  57 100
M  END
>  <TORSDO>  (163) 
F 16

>  <SCORE>  (163) 
-13.449

>  <name>  (163) 
162

>  <ligand_id>  (163) 
162

>  <original_smiles>  (163) 
[H]OC1([H])C([H])([H])N(C(=O)C([H])(N([H])C(=O)N([H])N([H])C(=O)N([H])C(=N[N+]([H])([H])C([H])([H])C([H])([H])N([H])C(=O)C([H])([H])C2([H])N=C(c3c([H])c([H])c(Cl)c([H])c3[H])c3c(sc(C([H])([H])[H])c3C([H])([H])[H])-n3c(C([H])([H])[H])nnc32)N([H])[H])C(C([H])([H])[H])(C([H])([H])[H])C([H])([H])[H])C([H])(C(=O)N([H])C([H])([H])c2c([H])c([H])c(C3=C(C([H])([H])[H])N([H])C([H])([H])S3)c([H])c2[H])C1([H])[H]

>  <smiles>  (163) 
[H]OC1([H])C([H])([H])N(C(=O)C([H])(N([H])C(=O)N([H])N([H])C(=O)N([H])C(=N[N+]([H])([H])C([H])([H])C([H])([H])N([H])C(=O)C([H])([H])C2([H])N=C(c3c([H])c([H])c(Cl)c([H])c3[H])c3c(sc(C([H])([H])[H])c3C([H])([H])[H])-n3c(C([H])([H])[H])nnc32)N([H])[H])C(C([H])([H])[H])(C([H])([H])[H])C([H])([H])[H])C([H])(C(=O)N([H])C([H])([H])c2c([H])c([H])c(C3=C(C([H])([H])[H])N([H])C([H])([H])S3)c([H])c2[H])C1([H])[H]

$$$$
163:0:0
     RDKit          3D

 79 85  0  0  1  0  0  0  0  0999 V2000
   25.8160  -24.5270  -15.0580 N   0  0  0  0  0  0  0  0  0  0  0  0
   26.8680  -24.8660  -14.3250 C   0  0  0  0  0  0  0  0  0  0  0  0
   27.3870  -24.1540  -13.4480 O   0  0  0  0  0  0  0  0  0  0  0  0
   26.6210  -27.0900  -15.3980 C   0  0  0  0  0  0  0  0  0  0  0  0
   25.3180  -27.2600  -15.1860 N   0  0  0  0  0  4  0  0  0  0  0  0
   27.3980  -26.0950  -14.8470 N   0  0  0  0  0  0  0  0  0  0  0  0
   27.1220  -27.9760  -16.2840 N   0  0  0  0  0  0  0  0  0  0  0  0
   25.5440  -25.2100  -15.7460 H   0  0  0  0  0  0  0  0  0  0  0  0
   24.7800  -26.7550  -14.4920 H   0  0  0  0  0  0  0  0  0  0  0  0
   24.7870  -27.6010  -15.9610 H   0  0  0  0  0  0  0  0  0  0  0  0
   28.3630  -26.3380  -14.6850 H   0  0  0  0  0  0  0  0  0  0  0  0
   27.8600  -27.6170  -16.8930 H   0  0  0  0  0  0  0  0  0  0  0  0
   24.8730  -23.4460  -14.9560 C   0  0  0  0  0  3  0  0  0  0  0  0
   21.6810  -23.7440  -12.6980 C   0  0  0  0  0  3  0  0  0  0  0  0
   21.1630  -22.4950  -11.9710 C   0  0  0  0  0  2  0  0  0  0  0  0
   22.3960  -21.6420  -11.7510 C   0  0  0  0  0  3  0  0  0  0  0  0
   23.3240  -21.9860  -12.9100 C   0  0  0  0  0  2  0  0  0  0  0  0
   22.8960  -23.2940  -13.4030 N   0  0  0  0  0  0  0  0  0  0  0  0
   23.6020  -24.0400  -14.2840 C   0  0  0  0  0  0  0  0  0  0  0  0
   23.3140  -25.2220  -14.5190 O   0  0  0  0  0  0  0  0  0  0  0  0
   19.7790  -25.2280  -13.0230 N   0  0  0  0  0  0  0  0  0  0  0  0
   20.5630  -24.3090  -13.5900 C   0  0  0  0  0  0  0  0  0  0  0  0
   20.3870  -23.8780  -14.7340 O   0  0  0  0  0  0  0  0  0  0  0  0
   20.0160  -25.5440  -12.0920 H   0  0  0  0  0  0  0  0  0  0  0  0
   18.5450  -25.7510  -13.6030 C   0  0  0  0  0  2  0  0  0  0  0  0
   15.0570  -23.2950  -12.7300 C   0  0  0  0  0  0  0  0  0  0  0  0
   16.0470  -23.4900  -11.7450 C   0  0  0  0  0  3  0  0  0  0  0  0
   17.1760  -24.2790  -12.0190 C   0  0  0  0  0  3  0  0  0  0  0  0
   15.2170  -23.8880  -13.9990 C   0  0  0  0  0  3  0  0  0  0  0  0
   16.3480  -24.6780  -14.2730 C   0  0  0  0  0  3  0  0  0  0  0  0
   17.3330  -24.8800  -13.2860 C   0  0  0  0  0  0  0  0  0  0  0  0
   12.0090  -23.7940  -13.6480 C   0  0  0  0  0  1  0  0  0  0  0  0
   12.5750  -22.6930  -12.7740 C   0  0  0  0  0  0  0  0  0  0  0  0
   11.6940  -21.7850  -12.2240 N   0  0  0  0  0  0  0  0  0  0  0  0
   12.2330  -20.8810  -11.2150 C   0  0  0  0  0  2  0  0  0  0  0  0
   14.0280  -21.0960  -11.3810 S   0  0  0  0  0  0  0  0  0  0  0  0
   13.8490  -22.5270  -12.3880 C   0  0  0  0  0  0  0  0  0  0  0  0
   10.6860  -21.8500  -12.3340 H   0  0  0  0  0  0  0  0  0  0  0  0
   23.0280  -21.9860  -10.5260 O   0  0  0  0  0  0  0  0  0  0  0  0
   23.2630  -22.9090  -10.5610 H   0  0  0  0  0  0  0  0  0  0  0  0
   24.6360  -22.9600  -16.4340 C   0  0  1  0  0  0  0  0  0  0  0  0
   25.9390  -22.3030  -16.9520 C   0  0  0  0  0  1  0  0  0  0  0  0
   24.2560  -24.0990  -17.4190 C   0  0  0  0  0  1  0  0  0  0  0  0
   23.5350  -21.8840  -16.4960 C   0  0  0  0  0  1  0  0  0  0  0  0
   26.9310  -29.4740  -16.3400 C   0  0  0  0  0  2  0  0  0  0  0  0
   25.6460  -30.3440  -16.5630 C   0  0  0  0  0  0  0  0  0  0  0  0
   24.3990  -29.9010  -16.8890 N   0  0  0  0  0  0  0  0  0  0  0  0
   25.7980  -31.5600  -16.3960 O   0  0  0  0  0  0  0  0  0  0  0  0
   24.2370  -28.9480  -17.1770 H   0  0  0  0  0  0  0  0  0  0  0  0
   23.3120  -30.8510  -16.9610 N   0  0  0  0  0  0  0  0  0  0  0  0
   23.5940  -31.6970  -16.4630 H   0  0  0  0  0  0  0  0  0  0  0  0
   20.9120  -31.3680  -16.5590 C   0  0  0  0  0  0  0  0  0  0  0  0
   19.8910  -30.9680  -16.0030 O   0  0  0  0  0  0  0  0  0  0  0  0
   21.9800  -30.5260  -16.5830 N   0  0  0  0  0  0  0  0  0  0  0  0
   21.8450  -29.6240  -16.1410 H   0  0  0  0  0  0  0  0  0  0  0  0
   20.9730  -32.8610  -16.9930 C   0  0  0  0  0  2  0  0  0  0  0  0
   21.3250  -33.7420  -15.7540 C   0  0  0  0  0  3  0  0  0  0  0  0
   22.6030  -33.2370  -15.2690 N   0  0  0  0  0  0  0  0  0  0  0  0
   21.4220  -35.2530  -15.9390 C   0  0  0  0  0  0  0  0  0  0  0  0
   21.2980  -35.9350  -17.0850 N   0  0  0  0  0  0  0  0  0  0  0  0
   21.5700  -37.2530  -16.7660 N   0  0  0  0  0  0  0  0  0  0  0  0
   21.8260  -37.2650  -15.4590 C   0  0  0  0  0  0  0  0  0  0  0  0
   22.2430  -38.4990  -14.7170 C   0  0  0  0  0  1  0  0  0  0  0  0
   21.7180  -36.0510  -14.8880 N   0  0  0  0  0  0  0  0  0  0  0  0
   21.8570  -35.6620  -13.5390 C   0  0  0  0  0  0  0  0  0  0  0  0
   21.2990  -36.5560  -12.1630 S   0  0  0  0  0  0  0  0  0  0  0  0
   21.7910  -35.2880  -11.0760 C   0  0  0  0  0  0  0  0  0  0  0  0
   21.5660  -35.4470   -9.6070 C   0  0  0  0  0  1  0  0  0  0  0  0
   22.3420  -34.2180  -11.7470 C   0  0  0  0  0  0  0  0  0  0  0  0
   22.7830  -32.9640  -11.0360 C   0  0  0  0  0  1  0  0  0  0  0  0
   22.4170  -34.4620  -13.1630 C   0  0  0  0  0  0  0  0  0  0  0  0
   23.0580  -33.5150  -14.1170 C   0  0  0  0  0  0  0  0  0  0  0  0
   24.3260  -32.8660  -13.7460 C   0  0  0  0  0  0  0  0  0  0  0  0
   25.4930  -33.6390  -13.5890 C   0  0  0  0  0  3  0  0  0  0  0  0
   26.6990  -33.0220  -13.2190 C   0  0  0  0  0  3  0  0  0  0  0  0
   26.7430  -31.6320  -13.0030 C   0  0  0  0  0  0  0  0  0  0  0  0
   28.2220  -30.8690  -12.5610 Cl  0  0  0  0  0  0  0  0  0  0  0  0
   25.5690  -30.8660  -13.1300 C   0  0  0  0  0  3  0  0  0  0  0  0
   24.3680  -31.4760  -13.5330 C   0  0  0  0  0  3  0  0  0  0  0  0
  1 13  1  0
  1  2  1  0
  2  3  2  0
  4  5  2  0
  4  6  1  0
  5  9  1  0
  6 11  1  0
  6  2  1  0
  7  4  1  0
  8  1  1  0
 10  5  1  0
 12  7  1  0
 13 19  1  0
 14 22  1  0
 14 15  1  0
 15 16  1  0
 16 39  1  0
 17 16  1  0
 18 17  1  0
 18 14  1  0
 19 18  1  0
 20 19  2  0
 21 24  1  0
 22 21  1  0
 23 22  2  0
 25 31  1  0
 25 21  1  0
 26 37  1  0
 26 27  1  0
 28 27  2  0
 29 26  2  0
 30 29  1  0
 30 31  2  0
 31 28  1  0
 32 33  1  0
 33 37  2  0
 33 34  1  0
 34 35  1  0
 36 35  1  0
 37 36  1  0
 38 34  1  0
 40 39  1  0
 41 13  1  0
 41 42  1  6
 43 41  1  0
 44 41  1  0
 45  7  1  0
 46 48  2  0
 46 45  1  0
 47 46  1  0
 49 47  1  0
 50 47  1  0
 50 54  1  0
 50 51  1  0
 52 53  2  0
 54 52  1  0
 54 55  1  0
 56 52  1  0
 57 56  1  0
 57 58  1  0
 58 72  2  0
 59 57  1  0
 59 64  1  0
 60 61  1  0
 60 59  2  0
 61 62  2  0
 62 64  1  0
 62 63  1  0
 64 65  1  0
 65 71  2  0
 65 66  1  0
 66 67  1  0
 67 68  1  0
 69 67  2  0
 69 70  1  0
 71 69  1  0
 72 73  1  0
 72 71  1  0
 73 74  2  0
 73 79  1  0
 74 75  1  0
 75 76  2  0
 76 77  1  0
 78 76  1  0
 79 78  2  0
M  ISO  4   2 101   6 101  52 100  54 100
M  END
>  <TORSDO>  (164) 
F 15

>  <SCORE>  (164) 
-11.596

>  <name>  (164) 
163

>  <ligand_id>  (164) 
163

>  <original_smiles>  (164) 
[H]OC1([H])C([H])([H])N(C(=O)C([H])(N([H])C(=O)N([H])C(N([H])[H])=[N+]([H])C([H])([H])C(=O)N([H])N([H])N([H])C(=O)C([H])([H])C2([H])N=C(c3c([H])c([H])c(Cl)c([H])c3[H])c3c(sc(C([H])([H])[H])c3C([H])([H])[H])-n3c(C([H])([H])[H])nnc32)C(C([H])([H])[H])(C([H])([H])[H])C([H])([H])[H])C([H])(C(=O)N([H])C([H])([H])c2c([H])c([H])c(C3=C(C([H])([H])[H])N([H])C([H])([H])S3)c([H])c2[H])C1([H])[H]

>  <smiles>  (164) 
[H]OC1([H])C([H])([H])N(C(=O)C([H])(N([H])C(=O)N([H])C(N([H])[H])=[N+]([H])C([H])([H])C(=O)N([H])N([H])N([H])C(=O)C([H])([H])C2([H])N=C(c3c([H])c([H])c(Cl)c([H])c3[H])c3c(sc(C([H])([H])[H])c3C([H])([H])[H])-n3c(C([H])([H])[H])nnc32)C(C([H])([H])[H])(C([H])([H])[H])C([H])([H])[H])C([H])(C(=O)N([H])C([H])([H])c2c([H])c([H])c(C3=C(C([H])([H])[H])N([H])C([H])([H])S3)c([H])c2[H])C1([H])[H]

$$$$
164:0:0
     RDKit          3D

 75 82  0  0  1  0  0  0  0  0999 V2000
   25.9090  -24.4640  -15.4010 N   0  0  0  0  0  0  0  0  0  0  0  0
   27.0100  -24.7340  -14.7230 C   0  0  0  0  0  0  0  0  0  0  0  0
   27.2740  -24.3530  -13.5780 O   0  0  0  0  0  0  0  0  0  0  0  0
   27.7710  -25.4000  -15.5930 N   0  0  0  0  0  0  0  0  0  0  0  0
   25.7520  -24.9940  -16.2440 H   0  0  0  0  0  0  0  0  0  0  0  0
   27.4040  -25.3750  -16.5300 H   0  0  0  0  0  0  0  0  0  0  0  0
   28.9150  -26.2840  -15.5100 C   0  0  0  0  0  2  0  0  0  0  0  0
   28.7300  -27.2970  -16.6780 C   0  0  0  0  0  2  0  0  0  0  0  0
   27.5120  -28.2120  -16.4380 C   0  0  0  0  0  2  0  0  0  0  0  0
   26.2200  -28.0130  -17.2070 C   0  0  0  0  0  0  0  0  0  0  0  0
   26.0150  -27.7260  -18.5370 C   0  0  0  0  0  0  0  0  0  0  0  0
   23.9420  -28.3630  -17.3220 C   0  0  0  0  0  0  0  0  0  0  0  0
   27.0340  -27.4020  -19.5810 C   0  0  0  0  0  1  0  0  0  0  0  0
   25.0210  -28.2960  -16.5300 N   0  0  0  0  0  0  0  0  0  0  0  0
   24.3190  -27.8790  -18.9730 S   0  0  0  0  0  0  0  0  0  0  0  0
   22.6650  -28.9540  -16.8720 C   0  0  0  0  0  3  0  0  0  0  0  0
   21.8470  -29.6640  -17.5610 N   0  0  0  0  0  0  0  0  0  0  0  0
   20.9240  -30.4340  -16.8510 C   0  0  0  0  0  0  0  0  0  0  0  0
   20.2980  -30.1280  -15.8300 O   0  0  0  0  0  0  0  0  0  0  0  0
   20.9710  -31.9090  -17.2870 C   0  0  0  0  0  2  0  0  0  0  0  0
   21.4110  -32.8340  -16.1160 C   0  0  0  0  0  3  0  0  0  0  0  0
   22.7980  -32.5340  -15.7450 N   0  0  0  0  0  0  0  0  0  0  0  0
   21.2730  -34.3210  -16.3930 C   0  0  0  0  0  0  0  0  0  0  0  0
   20.9850  -34.8940  -17.5680 N   0  0  0  0  0  0  0  0  0  0  0  0
   21.0640  -36.2560  -17.3500 N   0  0  0  0  0  0  0  0  0  0  0  0
   21.4080  -36.4000  -16.0660 C   0  0  0  0  0  0  0  0  0  0  0  0
   21.6660  -37.7310  -15.4270 C   0  0  0  0  0  1  0  0  0  0  0  0
   21.5240  -35.2200  -15.4200 N   0  0  0  0  0  0  0  0  0  0  0  0
   21.8280  -34.9380  -14.0720 C   0  0  0  0  0  0  0  0  0  0  0  0
   21.2300  -35.8150  -12.7010 S   0  0  0  0  0  0  0  0  0  0  0  0
   21.9960  -34.7020  -11.5990 C   0  0  0  0  0  0  0  0  0  0  0  0
   21.8520  -34.9090  -10.1250 C   0  0  0  0  0  1  0  0  0  0  0  0
   22.6650  -33.6960  -12.2610 C   0  0  0  0  0  0  0  0  0  0  0  0
   23.3560  -32.5680  -11.5370 C   0  0  0  0  0  1  0  0  0  0  0  0
   22.5990  -33.8610  -13.6920 C   0  0  0  0  0  0  0  0  0  0  0  0
   23.3110  -32.9670  -14.6570 C   0  0  0  0  0  0  0  0  0  0  0  0
   24.7010  -32.5730  -14.3550 C   0  0  0  0  0  0  0  0  0  0  0  0
   25.6330  -33.5300  -13.9000 C   0  0  0  0  0  3  0  0  0  0  0  0
   26.9500  -33.1420  -13.5850 C   0  0  0  0  0  3  0  0  0  0  0  0
   27.3300  -31.7930  -13.7030 C   0  0  0  0  0  0  0  0  0  0  0  0
   28.9400  -31.3020  -13.3280 Cl  0  0  0  0  0  0  0  0  0  0  0  0
   26.3810  -30.8400  -14.1080 C   0  0  0  0  0  3  0  0  0  0  0  0
   25.0830  -31.2250  -14.4690 C   0  0  0  0  0  3  0  0  0  0  0  0
   24.9350  -23.4140  -15.2350 C   0  0  0  0  0  3  0  0  0  0  0  0
   21.8340  -23.8240  -12.8820 C   0  0  0  0  0  3  0  0  0  0  0  0
   21.3200  -22.6110  -12.0920 C   0  0  0  0  0  2  0  0  0  0  0  0
   22.5490  -21.7530  -11.8750 C   0  0  0  0  0  3  0  0  0  0  0  0
   23.4400  -22.0310  -13.0830 C   0  0  0  0  0  2  0  0  0  0  0  0
   23.0190  -23.3340  -13.6130 N   0  0  0  0  0  0  0  0  0  0  0  0
   23.7010  -24.0460  -14.5420 C   0  0  0  0  0  0  0  0  0  0  0  0
   23.3940  -25.2100  -14.8290 O   0  0  0  0  0  0  0  0  0  0  0  0
   19.9370  -25.3220  -13.1870 N   0  0  0  0  0  0  0  0  0  0  0  0
   20.7000  -24.3830  -13.7560 C   0  0  0  0  0  0  0  0  0  0  0  0
   20.4880  -23.9330  -14.8840 O   0  0  0  0  0  0  0  0  0  0  0  0
   20.1930  -25.6460  -12.2640 H   0  0  0  0  0  0  0  0  0  0  0  0
   18.6970  -25.8470  -13.7430 C   0  0  0  0  0  2  0  0  0  0  0  0
   15.2260  -23.4130  -12.7570 C   0  0  0  0  0  0  0  0  0  0  0  0
   16.2380  -23.6240  -11.7990 C   0  0  0  0  0  3  0  0  0  0  0  0
   17.3620  -24.4060  -12.1150 C   0  0  0  0  0  3  0  0  0  0  0  0
   15.3520  -23.9900  -14.0390 C   0  0  0  0  0  3  0  0  0  0  0  0
   16.4800  -24.7730  -14.3540 C   0  0  0  0  0  3  0  0  0  0  0  0
   17.4900  -24.9860  -13.3950 C   0  0  0  0  0  0  0  0  0  0  0  0
   12.1540  -23.9120  -13.6110 C   0  0  0  0  0  1  0  0  0  0  0  0
   12.7390  -22.8210  -12.7370 C   0  0  0  0  0  0  0  0  0  0  0  0
   11.8670  -21.9220  -12.1550 N   0  0  0  0  0  0  0  0  0  0  0  0
   12.4270  -21.0330  -11.1430 C   0  0  0  0  0  2  0  0  0  0  0  0
   14.2160  -21.2450  -11.3520 S   0  0  0  0  0  0  0  0  0  0  0  0
   14.0200  -22.6580  -12.3770 C   0  0  0  0  0  0  0  0  0  0  0  0
   10.8590  -21.9900  -12.2440 H   0  0  0  0  0  0  0  0  0  0  0  0
   23.2310  -22.1580  -10.6990 O   0  0  0  0  0  0  0  0  0  0  0  0
   23.4740  -23.0740  -10.7910 H   0  0  0  0  0  0  0  0  0  0  0  0
   24.6510  -22.8560  -16.6820 C   0  0  1  0  0  0  0  0  0  0  0  0
   25.9180  -22.1340  -17.2030 C   0  0  0  0  0  1  0  0  0  0  0  0
   24.2770  -23.9600  -17.7060 C   0  0  0  0  0  1  0  0  0  0  0  0
   23.5120  -21.8150  -16.6750 C   0  0  0  0  0  1  0  0  0  0  0  0
  1 44  1  0
  1  2  1  0
  2  3  2  0
  4  7  1  0
  4  2  1  0
  5  1  1  0
  6  4  1  0
  8  9  1  0
  8  7  1  0
 10 14  1  0
 10  9  1  0
 11 10  2  0
 12 16  1  0
 12 14  2  0
 13 11  1  0
 15 11  1  0
 15 12  1  0
 17 16  2  0
 17 18  1  0
 18 19  2  0
 20 18  1  0
 21 20  1  0
 21 22  1  0
 22 36  2  0
 23 21  1  0
 23 28  1  0
 24 25  1  0
 24 23  2  0
 25 26  2  0
 26 27  1  0
 26 28  1  0
 28 29  1  0
 29 35  2  0
 29 30  1  0
 30 31  1  0
 31 32  1  0
 33 31  2  0
 33 34  1  0
 35 33  1  0
 36 37  1  0
 36 35  1  0
 37 38  1  0
 38 39  2  0
 40 39  1  0
 40 41  1  0
 42 40  2  0
 43 37  2  0
 43 42  1  0
 44 50  1  0
 45 53  1  0
 45 46  1  0
 46 47  1  0
 47 70  1  0
 48 47  1  0
 49 48  1  0
 49 45  1  0
 50 49  1  0
 51 50  2  0
 52 55  1  0
 53 52  1  0
 54 53  2  0
 56 62  1  0
 56 52  1  0
 57 68  1  0
 57 58  1  0
 59 58  2  0
 60 57  2  0
 61 60  1  0
 61 62  2  0
 62 59  1  0
 63 64  1  0
 64 68  2  0
 64 65  1  0
 65 66  1  0
 67 66  1  0
 68 67  1  0
 69 65  1  0
 71 70  1  0
 72 75  1  1
 72 44  1  0
 73 72  1  0
 74 72  1  0
M  ISO  4   2 101   4 101  17 100  18 100
M  END
>  <TORSDO>  (165) 
F 17

>  <SCORE>  (165) 
-13.538

>  <name>  (165) 
164

>  <ligand_id>  (165) 
164

>  <original_smiles>  (165) 
[H]OC1([H])C([H])([H])N(C(=O)C([H])(N([H])C(=O)N([H])C([H])([H])C([H])([H])C([H])([H])c2nc(C([H])=NC(=O)C([H])([H])C3([H])N=C(c4c([H])c([H])c(Cl)c([H])c4[H])c4c(sc(C([H])([H])[H])c4C([H])([H])[H])-n4c(C([H])([H])[H])nnc43)sc2C([H])([H])[H])C(C([H])([H])[H])(C([H])([H])[H])C([H])([H])[H])C([H])(C(=O)N([H])C([H])([H])c2c([H])c([H])c(C3=C(C([H])([H])[H])N([H])C([H])([H])S3)c([H])c2[H])C1([H])[H]

>  <smiles>  (165) 
[H]OC1([H])C([H])([H])N(C(=O)C([H])(N([H])C(=O)N([H])C([H])([H])C([H])([H])C([H])([H])c2nc(C([H])=NC(=O)C([H])([H])C3([H])N=C(c4c([H])c([H])c(Cl)c([H])c4[H])c4c(sc(C([H])([H])[H])c4C([H])([H])[H])-n4c(C([H])([H])[H])nnc43)sc2C([H])([H])[H])C(C([H])([H])[H])(C([H])([H])[H])C([H])([H])[H])C([H])(C(=O)N([H])C([H])([H])c2c([H])c([H])c(C3=C(C([H])([H])[H])N([H])C([H])([H])S3)c([H])c2[H])C1([H])[H]

$$$$
165:0:0
     RDKit          3D

 77 85  0  0  1  0  0  0  0  0999 V2000
   27.7690  -29.1690  -17.9200 C   0  0  0  0  0  2  0  0  0  0  0  0
   28.0270  -27.7610  -18.4370 C   0  0  0  0  0  2  0  0  0  0  0  0
   26.2760  -29.2670  -17.6930 C   0  0  0  0  0  2  0  0  0  0  0  0
   27.7680  -26.7230  -17.3390 C   0  0  0  0  0  2  0  0  0  0  0  0
   25.6590  -28.2140  -16.7250 C   0  0  0  0  0  3  0  0  0  0  0  0
   26.3990  -26.7810  -16.6070 C   0  0  0  0  0  3  0  0  0  0  0  0
   25.4860  -24.4570  -15.3540 N   0  0  0  0  0  0  0  0  0  0  0  0
   26.4790  -25.0010  -14.6820 C   0  0  0  0  0  0  0  0  0  0  0  0
   26.9980  -24.4590  -13.6930 O   0  0  0  0  0  0  0  0  0  0  0  0
   26.7070  -26.2510  -15.2040 N   0  0  0  0  0  0  0  0  0  0  0  0
   25.1170  -25.0660  -16.0660 H   0  0  0  0  0  0  0  0  0  0  0  0
   27.4000  -26.7900  -14.7000 H   0  0  0  0  0  0  0  0  0  0  0  0
   24.5930  -23.3580  -15.0570 C   0  0  0  0  0  3  0  0  0  0  0  0
   21.4610  -23.7450  -12.7070 C   0  0  0  0  0  3  0  0  0  0  0  0
   20.9280  -22.5320  -11.9280 C   0  0  0  0  0  2  0  0  0  0  0  0
   22.1460  -21.6620  -11.7060 C   0  0  0  0  0  3  0  0  0  0  0  0
   23.0550  -21.9470  -12.9060 C   0  0  0  0  0  2  0  0  0  0  0  0
   22.6510  -23.2570  -13.4360 N   0  0  0  0  0  0  0  0  0  0  0  0
   23.3470  -23.9760  -14.3530 C   0  0  0  0  0  0  0  0  0  0  0  0
   23.0400  -25.1430  -14.6230 O   0  0  0  0  0  0  0  0  0  0  0  0
   19.5750  -25.2680  -13.0020 N   0  0  0  0  0  0  0  0  0  0  0  0
   20.3340  -24.3280  -13.5770 C   0  0  0  0  0  0  0  0  0  0  0  0
   20.1270  -23.8930  -14.7120 O   0  0  0  0  0  0  0  0  0  0  0  0
   19.8230  -25.5750  -12.0700 H   0  0  0  0  0  0  0  0  0  0  0  0
   18.3440  -25.8040  -13.5670 C   0  0  0  0  0  2  0  0  0  0  0  0
   14.8650  -23.3080  -12.7730 C   0  0  0  0  0  0  0  0  0  0  0  0
   15.8810  -23.4390  -11.8040 C   0  0  0  0  0  3  0  0  0  0  0  0
   17.0080  -24.2390  -12.0570 C   0  0  0  0  0  3  0  0  0  0  0  0
   14.9930  -23.9870  -14.0030 C   0  0  0  0  0  3  0  0  0  0  0  0
   16.1230  -24.7890  -14.2580 C   0  0  0  0  0  3  0  0  0  0  0  0
   17.1350  -24.9210  -13.2860 C   0  0  0  0  0  0  0  0  0  0  0  0
   11.7830  -23.9320  -13.4880 C   0  0  0  0  0  1  0  0  0  0  0  0
   12.3730  -22.7420  -12.7580 C   0  0  0  0  0  0  0  0  0  0  0  0
   11.5040  -21.7930  -12.2610 N   0  0  0  0  0  0  0  0  0  0  0  0
   12.0770  -20.7850  -11.3750 C   0  0  0  0  0  2  0  0  0  0  0  0
   13.8610  -21.0020  -11.6020 S   0  0  0  0  0  0  0  0  0  0  0  0
   13.6600  -22.5260  -12.4510 C   0  0  0  0  0  0  0  0  0  0  0  0
   10.4940  -21.8850  -12.3090 H   0  0  0  0  0  0  0  0  0  0  0  0
   22.8200  -22.0450  -10.5140 O   0  0  0  0  0  0  0  0  0  0  0  0
   23.0570  -22.9640  -10.5810 H   0  0  0  0  0  0  0  0  0  0  0  0
   24.2710  -22.7070  -16.4520 C   0  0  1  0  0  0  0  0  0  0  0  0
   25.5500  -22.0140  -16.9770 C   0  0  0  0  0  1  0  0  0  0  0  0
   23.8320  -23.7320  -17.5300 C   0  0  0  0  0  1  0  0  0  0  0  0
   23.1640  -21.6410  -16.3420 C   0  0  0  0  0  1  0  0  0  0  0  0
   22.2100  -27.8910  -17.7660 C   0  0  0  0  0  3  0  0  0  0  0  0
   23.4620  -29.5180  -16.9690 C   0  0  0  0  0  3  0  0  0  0  0  0
   22.1970  -29.2760  -17.4260 C   0  0  0  0  0  0  0  0  0  0  0  0
   23.4010  -27.3300  -17.4800 N   0  0  0  0  0  0  0  0  0  0  0  0
   24.1840  -28.3220  -16.9590 N   0  0  0  0  0  0  0  0  0  0  0  0
   20.6750  -31.1600  -16.8670 C   0  0  0  0  0  0  0  0  0  0  0  0
   20.1420  -30.7680  -15.8260 O   0  0  0  0  0  0  0  0  0  0  0  0
   21.2210  -30.2910  -17.7500 N   0  0  0  0  0  0  0  0  0  0  0  0
   21.2710  -30.6140  -18.7070 H   0  0  0  0  0  0  0  0  0  0  0  0
   20.7520  -32.6850  -17.1510 C   0  0  0  0  0  2  0  0  0  0  0  0
   21.2680  -33.4750  -15.9020 C   0  0  0  0  0  3  0  0  0  0  0  0
   22.6270  -33.0280  -15.5930 N   0  0  0  0  0  0  0  0  0  0  0  0
   21.2580  -34.9930  -16.0140 C   0  0  0  0  0  0  0  0  0  0  0  0
   20.9830  -35.7170  -17.1080 N   0  0  0  0  0  0  0  0  0  0  0  0
   21.2050  -37.0370  -16.7520 N   0  0  0  0  0  0  0  0  0  0  0  0
   21.5920  -37.0090  -15.4720 C   0  0  0  0  0  0  0  0  0  0  0  0
   21.9870  -38.2230  -14.6980 C   0  0  0  0  0  1  0  0  0  0  0  0
   21.6130  -35.7600  -14.9570 N   0  0  0  0  0  0  0  0  0  0  0  0
   21.9140  -35.3210  -13.6520 C   0  0  0  0  0  0  0  0  0  0  0  0
   21.4240  -36.1050  -12.1840 S   0  0  0  0  0  0  0  0  0  0  0  0
   22.1070  -34.8240  -11.2230 C   0  0  0  0  0  0  0  0  0  0  0  0
   22.0180  -34.8950   -9.7340 C   0  0  0  0  0  1  0  0  0  0  0  0
   22.6670  -33.8330  -12.0000 C   0  0  0  0  0  0  0  0  0  0  0  0
   23.2620  -32.5780  -11.4090 C   0  0  0  0  0  1  0  0  0  0  0  0
   22.5910  -34.1460  -13.4030 C   0  0  0  0  0  0  0  0  0  0  0  0
   23.1960  -33.3000  -14.4790 C   0  0  0  0  0  0  0  0  0  0  0  0
   24.5510  -32.7610  -14.2610 C   0  0  0  0  0  0  0  0  0  0  0  0
   25.6030  -33.5970  -13.8280 C   0  0  0  0  0  3  0  0  0  0  0  0
   26.8800  -33.0530  -13.5900 C   0  0  0  0  0  3  0  0  0  0  0  0
   27.0980  -31.6780  -13.7560 C   0  0  0  0  0  0  0  0  0  0  0  0
   28.6540  -30.9880  -13.4820 Cl  0  0  0  0  0  0  0  0  0  0  0  0
   26.0360  -30.8470  -14.1270 C   0  0  0  0  0  3  0  0  0  0  0  0
   24.7720  -31.3840  -14.4200 C   0  0  0  0  0  3  0  0  0  0  0  0
  1  3  1  0
  2  1  1  0
  2  4  1  0
  4  6  1  0
  5  3  1  0
  5  6  1  0
  6 10  1  0
  7 13  1  0
  7  8  1  0
  8  9  2  0
 10 12  1  0
 10  8  1  0
 11  7  1  0
 13 19  1  0
 14 22  1  0
 14 15  1  0
 15 16  1  0
 16 39  1  0
 17 16  1  0
 18 17  1  0
 18 14  1  0
 19 18  1  0
 20 19  2  0
 21 24  1  0
 22 21  1  0
 23 22  2  0
 25 31  1  0
 25 21  1  0
 26 37  1  0
 26 27  1  0
 28 27  2  0
 29 26  2  0
 30 29  1  0
 30 31  2  0
 31 28  1  0
 32 33  1  0
 33 37  2  0
 33 34  1  0
 34 35  1  0
 36 35  1  0
 37 36  1  0
 38 34  1  0
 40 39  1  0
 41 44  1  1
 41 13  1  0
 42 41  1  0
 43 41  1  0
 45 48  2  0
 45 47  1  0
 46 49  1  0
 47 46  2  0
 48 49  1  0
 49  5  1  0
 50 51  2  0
 52 47  1  0
 52 50  1  0
 53 52  1  0
 54 50  1  0
 55 54  1  0
 55 56  1  0
 56 70  2  0
 57 55  1  0
 57 62  1  0
 58 59  1  0
 58 57  2  0
 59 60  2  0
 60 62  1  0
 60 61  1  0
 62 63  1  0
 63 69  2  0
 63 64  1  0
 64 65  1  0
 65 66  1  0
 67 68  1  0
 67 65  2  0
 69 67  1  0
 70 71  1  0
 70 69  1  0
 71 72  1  0
 72 73  2  0
 74 73  1  0
 74 75  1  0
 76 74  2  0
 77 71  2  0
 77 76  1  0
M  ISO  4   8 101  10 101  50 100  52 100
M  END
>  <TORSDO>  (166) 
F 14

>  <SCORE>  (166) 
-11.203

>  <name>  (166) 
165

>  <ligand_id>  (166) 
165

>  <original_smiles>  (166) 
[H]OC1([H])C([H])([H])N(C(=O)C([H])(N([H])C(=O)N([H])C2([H])C([H])([H])C([H])([H])C([H])([H])C([H])([H])C2([H])n2nc([H])c(N([H])C(=O)C([H])([H])C3([H])N=C(c4c([H])c([H])c(Cl)c([H])c4[H])c4c(sc(C([H])([H])[H])c4C([H])([H])[H])-n4c(C([H])([H])[H])nnc43)c2[H])C(C([H])([H])[H])(C([H])([H])[H])C([H])([H])[H])C([H])(C(=O)N([H])C([H])([H])c2c([H])c([H])c(C3=C(C([H])([H])[H])N([H])C([H])([H])S3)c([H])c2[H])C1([H])[H]

>  <smiles>  (166) 
[H]OC1([H])C([H])([H])N(C(=O)C([H])(N([H])C(=O)N([H])C2([H])C([H])([H])C([H])([H])C([H])([H])C([H])([H])C2([H])n2nc([H])c(N([H])C(=O)C([H])([H])C3([H])N=C(c4c([H])c([H])c(Cl)c([H])c4[H])c4c(sc(C([H])([H])[H])c4C([H])([H])[H])-n4c(C([H])([H])[H])nnc43)c2[H])C(C([H])([H])[H])(C([H])([H])[H])C([H])([H])[H])C([H])(C(=O)N([H])C([H])([H])c2c([H])c([H])c(C3=C(C([H])([H])[H])N([H])C([H])([H])S3)c([H])c2[H])C1([H])[H]

$$$$
166:0:0
     RDKit          3D

 78 85  0  0  1  0  0  0  0  0999 V2000
   28.3000  -28.2330  -18.2410 C   0  0  0  0  0  3  0  0  0  0  0  0
   27.0290  -28.2990  -18.8430 C   0  0  0  0  0  3  0  0  0  0  0  0
   28.4290  -27.7680  -16.9190 C   0  0  0  0  0  3  0  0  0  0  0  0
   26.0130  -27.4400  -16.8020 C   0  0  0  0  0  3  0  0  0  0  0  0
   25.8720  -27.9340  -18.1210 C   0  0  0  0  0  0  0  0  0  0  0  0
   27.2930  -27.3450  -16.2030 C   0  0  0  0  0  0  0  0  0  0  0  0
   24.5250  -28.0850  -18.7740 C   0  0  0  0  0  0  0  0  0  0  0  0
   23.6130  -28.7780  -18.0810 N   0  0  0  0  0  0  0  0  0  0  0  0
   24.3360  -27.6980  -19.9280 O   0  0  0  0  0  0  0  0  0  0  0  0
   23.8800  -29.0890  -17.1590 H   0  0  0  0  0  0  0  0  0  0  0  0
   22.4240  -29.4020  -18.6640 C   0  0  0  0  0  2  0  0  0  0  0  0
   21.1280  -28.5790  -18.4840 C   0  0  0  0  0  2  0  0  0  0  0  0
   20.2380  -29.5750  -16.3380 C   0  0  0  0  0  0  0  0  0  0  0  0
   19.9480  -29.3730  -15.1590 O   0  0  0  0  0  0  0  0  0  0  0  0
   20.6560  -28.5520  -17.1010 N   0  0  0  0  0  0  0  0  0  0  0  0
   20.6690  -27.6460  -16.6520 H   0  0  0  0  0  0  0  0  0  0  0  0
   20.1620  -31.0110  -16.8990 C   0  0  0  0  0  2  0  0  0  0  0  0
   20.8650  -32.0570  -15.9910 C   0  0  0  0  0  3  0  0  0  0  0  0
   22.2570  -31.6720  -15.7530 N   0  0  0  0  0  0  0  0  0  0  0  0
   20.8110  -33.4760  -16.5310 C   0  0  0  0  0  0  0  0  0  0  0  0
   20.4060  -33.8530  -17.7510 N   0  0  0  0  0  0  0  0  0  0  0  0
   20.6280  -35.2150  -17.8140 N   0  0  0  0  0  0  0  0  0  0  0  0
   21.1540  -35.5550  -16.6330 C   0  0  0  0  0  0  0  0  0  0  0  0
   21.6020  -36.9460  -16.2960 C   0  0  0  0  0  1  0  0  0  0  0  0
   21.2660  -34.5050  -15.7890 N   0  0  0  0  0  0  0  0  0  0  0  0
   21.7330  -34.4360  -14.4630 C   0  0  0  0  0  0  0  0  0  0  0  0
   21.4100  -35.6050  -13.2220 S   0  0  0  0  0  0  0  0  0  0  0  0
   22.2310  -34.6350  -12.0340 C   0  0  0  0  0  0  0  0  0  0  0  0
   22.3110  -35.1190  -10.6200 C   0  0  0  0  0  1  0  0  0  0  0  0
   22.7140  -33.4600  -12.5650 C   0  0  0  0  0  0  0  0  0  0  0  0
   23.4000  -32.4140  -11.7230 C   0  0  0  0  0  1  0  0  0  0  0  0
   22.4630  -33.3700  -13.9820 C   0  0  0  0  0  0  0  0  0  0  0  0
   22.9530  -32.2400  -14.8390 C   0  0  0  0  0  0  0  0  0  0  0  0
   24.3370  -31.7620  -14.6450 C   0  0  0  0  0  0  0  0  0  0  0  0
   25.3910  -32.6860  -14.4620 C   0  0  0  0  0  3  0  0  0  0  0  0
   26.7020  -32.2250  -14.2470 C   0  0  0  0  0  3  0  0  0  0  0  0
   26.9650  -30.8460  -14.2110 C   0  0  0  0  0  0  0  0  0  0  0  0
   28.5700  -30.2740  -13.9490 Cl  0  0  0  0  0  0  0  0  0  0  0  0
   25.9130  -29.9300  -14.3850 C   0  0  0  0  0  3  0  0  0  0  0  0
   24.6030  -30.3790  -14.6100 C   0  0  0  0  0  3  0  0  0  0  0  0
   27.4380  -26.8760  -14.7630 C   0  0  0  0  0  2  0  0  0  0  0  0
   27.9670  -25.5640  -14.6320 O   0  0  0  0  0  0  0  0  0  0  0  0
   26.1230  -24.3970  -15.1340 N   0  0  0  0  0  0  0  0  0  0  0  0
   27.1750  -24.5560  -14.2570 C   0  0  0  0  0  0  0  0  0  0  0  0
   27.4310  -23.8320  -13.2980 O   0  0  0  0  0  0  0  0  0  0  0  0
   26.0470  -25.0800  -15.8720 H   0  0  0  0  0  0  0  0  0  0  0  0
   25.0940  -23.3580  -15.0520 C   0  0  0  0  0  3  0  0  0  0  0  0
   21.8370  -23.7370  -12.8780 C   0  0  0  0  0  3  0  0  0  0  0  0
   21.1940  -22.4970  -12.2350 C   0  0  0  0  0  2  0  0  0  0  0  0
   22.3540  -21.5520  -12.0090 C   0  0  0  0  0  3  0  0  0  0  0  0
   23.3490  -21.8760  -13.1240 C   0  0  0  0  0  2  0  0  0  0  0  0
   23.0450  -23.2420  -13.5680 N   0  0  0  0  0  0  0  0  0  0  0  0
   23.8350  -23.9870  -14.3850 C   0  0  0  0  0  0  0  0  0  0  0  0
   23.6110  -25.1870  -14.5800 O   0  0  0  0  0  0  0  0  0  0  0  0
   20.0910  -25.4120  -13.1870 N   0  0  0  0  0  0  0  0  0  0  0  0
   20.8000  -24.4400  -13.7700 C   0  0  0  0  0  0  0  0  0  0  0  0
   20.6100  -24.0700  -14.9310 O   0  0  0  0  0  0  0  0  0  0  0  0
   20.3260  -25.6640  -12.2360 H   0  0  0  0  0  0  0  0  0  0  0  0
   18.9340  -26.0740  -13.7740 C   0  0  0  0  0  2  0  0  0  0  0  0
   15.2240  -23.8840  -13.1630 C   0  0  0  0  0  0  0  0  0  0  0  0
   16.2050  -23.9090  -12.1520 C   0  0  0  0  0  3  0  0  0  0  0  0
   17.4060  -24.6120  -12.3470 C   0  0  0  0  0  3  0  0  0  0  0  0
   15.4580  -24.5690  -14.3740 C   0  0  0  0  0  3  0  0  0  0  0  0
   16.6620  -25.2710  -14.5690 C   0  0  0  0  0  3  0  0  0  0  0  0
   17.6420  -25.2980  -13.5570 C   0  0  0  0  0  0  0  0  0  0  0  0
   12.2360  -24.7890  -13.9840 C   0  0  0  0  0  1  0  0  0  0  0  0
   12.6910  -23.5410  -13.2540 C   0  0  0  0  0  0  0  0  0  0  0  0
   11.7230  -22.6650  -12.8090 N   0  0  0  0  0  0  0  0  0  0  0  0
   12.1680  -21.5950  -11.9230 C   0  0  0  0  0  2  0  0  0  0  0  0
   13.9730  -21.6580  -12.0740 S   0  0  0  0  0  0  0  0  0  0  0  0
   13.9410  -23.2070  -12.9040 C   0  0  0  0  0  0  0  0  0  0  0  0
   10.7270  -22.8450  -12.9010 H   0  0  0  0  0  0  0  0  0  0  0  0
   22.9610  -21.8110  -10.7530 O   0  0  0  0  0  0  0  0  0  0  0  0
   23.2810  -22.7090  -10.7510 H   0  0  0  0  0  0  0  0  0  0  0  0
   24.8370  -22.8010  -16.5000 C   0  0  1  0  0  0  0  0  0  0  0  0
   26.1120  -22.0690  -16.9830 C   0  0  0  0  0  1  0  0  0  0  0  0
   24.4960  -23.9060  -17.5290 C   0  0  0  0  0  1  0  0  0  0  0  0
   23.6940  -21.7640  -16.5190 C   0  0  0  0  0  1  0  0  0  0  0  0
  1  3  1  0
  2  1  2  0
  2  5  1  0
  3  6  2  0
  4  6  1  0
  5  4  2  0
  6 41  1  0
  7  5  1  0
  7  8  1  0
  8 10  1  0
  9  7  2  0
 11 12  1  0
 11  8  1  0
 12 15  1  0
 13 14  2  0
 15 16  1  0
 15 13  1  0
 17 13  1  0
 18 17  1  0
 18 19  1  0
 19 33  2  0
 20 18  1  0
 20 25  1  0
 21 20  2  0
 22 21  1  0
 22 23  2  0
 23 24  1  0
 23 25  1  0
 25 26  1  0
 26 32  2  0
 26 27  1  0
 27 28  1  0
 28 29  1  0
 30 28  2  0
 30 31  1  0
 32 30  1  0
 33 34  1  0
 33 32  1  0
 34 40  2  0
 34 35  1  0
 35 36  2  0
 36 37  1  0
 37 38  1  0
 39 37  2  0
 40 39  1  0
 41 42  1  0
 42 44  1  0
 43 47  1  0
 43 44  1  0
 44 45  2  0
 46 43  1  0
 47 53  1  0
 48 56  1  0
 48 49  1  0
 49 50  1  0
 50 73  1  0
 51 50  1  0
 52 51  1  0
 52 48  1  0
 53 52  1  0
 54 53  2  0
 55 58  1  0
 56 55  1  0
 57 56  2  0
 59 65  1  0
 59 55  1  0
 60 71  1  0
 60 61  1  0
 62 61  2  0
 63 60  2  0
 64 63  1  0
 64 65  2  0
 65 62  1  0
 66 67  1  0
 67 71  2  0
 67 68  1  0
 68 69  1  0
 70 69  1  0
 71 70  1  0
 72 68  1  0
 73 74  1  0
 75 47  1  0
 75 76  1  6
 77 75  1  0
 78 75  1  0
M  ISO  4  13 100  15 100  42 101  44 101
M  END
>  <TORSDO>  (167) 
F 18

>  <SCORE>  (167) 
-8.787

>  <name>  (167) 
166

>  <ligand_id>  (167) 
166

>  <original_smiles>  (167) 
[H]OC1([H])C([H])([H])N(C(=O)C([H])(N([H])C(=O)OC([H])([H])c2c([H])c([H])c([H])c(C(=O)N([H])C([H])([H])C([H])([H])N([H])C(=O)C([H])([H])C3([H])N=C(c4c([H])c([H])c(Cl)c([H])c4[H])c4c(sc(C([H])([H])[H])c4C([H])([H])[H])-n4c(C([H])([H])[H])nnc43)c2[H])C(C([H])([H])[H])(C([H])([H])[H])C([H])([H])[H])C([H])(C(=O)N([H])C([H])([H])c2c([H])c([H])c(C3=C(C([H])([H])[H])N([H])C([H])([H])S3)c([H])c2[H])C1([H])[H]

>  <smiles>  (167) 
[H]OC1([H])C([H])([H])N(C(=O)C([H])(N([H])C(=O)OC([H])([H])c2c([H])c([H])c([H])c(C(=O)N([H])C([H])([H])C([H])([H])N([H])C(=O)C([H])([H])C3([H])N=C(c4c([H])c([H])c(Cl)c([H])c4[H])c4c(sc(C([H])([H])[H])c4C([H])([H])[H])-n4c(C([H])([H])[H])nnc43)c2[H])C(C([H])([H])[H])(C([H])([H])[H])C([H])([H])[H])C([H])(C(=O)N([H])C([H])([H])c2c([H])c([H])c(C3=C(C([H])([H])[H])N([H])C([H])([H])S3)c([H])c2[H])C1([H])[H]

$$$$
167:0:0
     RDKit          3D

 72 78  0  0  1  0  0  0  0  0999 V2000
   25.9590  -24.5430  -15.7280 N   0  0  0  0  0  0  0  0  0  0  0  0
   26.8170  -25.1850  -14.9600 C   0  0  0  0  0  0  0  0  0  0  0  0
   27.3190  -24.7300  -13.9240 O   0  0  0  0  0  0  0  0  0  0  0  0
   26.8490  -26.4490  -15.3950 N   0  0  0  0  0  0  0  0  0  0  0  0
   25.6340  -25.0500  -16.5350 H   0  0  0  0  0  0  0  0  0  0  0  0
   26.9310  -26.5410  -16.3980 H   0  0  0  0  0  0  0  0  0  0  0  0
   25.9200  -27.4360  -14.8300 C   0  0  0  0  0  2  0  0  0  0  0  0
   24.6810  -27.8200  -15.7380 C   0  0  0  0  0  3  0  0  0  0  0  0
   24.7900  -28.2290  -17.2390 C   0  0  0  0  0  3  0  0  0  0  0  0
   23.4400  -28.4890  -18.0090 C   0  0  0  0  0  2  0  0  0  0  0  0
   20.9820  -31.2860  -17.1550 C   0  0  0  0  0  0  0  0  0  0  0  0
   20.1830  -30.9410  -16.2810 O   0  0  0  0  0  0  0  0  0  0  0  0
   22.2720  -29.2080  -17.2820 C   0  0  0  0  0  0  0  0  0  0  0  0
   21.9110  -30.4510  -17.6970 N   0  0  0  0  0  0  0  0  0  0  0  0
   21.7030  -28.5950  -16.3740 O   0  0  0  0  0  0  0  0  0  0  0  0
   22.4970  -30.8590  -18.4080 H   0  0  0  0  0  0  0  0  0  0  0  0
   21.1040  -32.7920  -17.4750 C   0  0  0  0  0  2  0  0  0  0  0  0
   21.5250  -33.5580  -16.1880 C   0  0  0  0  0  3  0  0  0  0  0  0
   22.8650  -33.1050  -15.8150 N   0  0  0  0  0  0  0  0  0  0  0  0
   21.5170  -35.0760  -16.2650 C   0  0  0  0  0  0  0  0  0  0  0  0
   21.3220  -35.8240  -17.3570 N   0  0  0  0  0  0  0  0  0  0  0  0
   21.5130  -37.1330  -16.9520 N   0  0  0  0  0  0  0  0  0  0  0  0
   21.8170  -37.0730  -15.6510 C   0  0  0  0  0  0  0  0  0  0  0  0
   22.1680  -38.2770  -14.8290 C   0  0  0  0  0  1  0  0  0  0  0  0
   21.8030  -35.8110  -15.1690 N   0  0  0  0  0  0  0  0  0  0  0  0
   22.0230  -35.3270  -13.8620 C   0  0  0  0  0  0  0  0  0  0  0  0
   21.4500  -36.0660  -12.4010 S   0  0  0  0  0  0  0  0  0  0  0  0
   22.0680  -34.7520  -11.4390 C   0  0  0  0  0  0  0  0  0  0  0  0
   21.8850  -34.7770   -9.9550 C   0  0  0  0  0  1  0  0  0  0  0  0
   22.6680  -33.7810  -12.2110 C   0  0  0  0  0  0  0  0  0  0  0  0
   23.2200  -32.5050  -11.6270 C   0  0  0  0  0  1  0  0  0  0  0  0
   22.6810  -34.1430  -13.6060 C   0  0  0  0  0  0  0  0  0  0  0  0
   23.3580  -33.3300  -14.6590 C   0  0  0  0  0  0  0  0  0  0  0  0
   24.6960  -32.7770  -14.3750 C   0  0  0  0  0  0  0  0  0  0  0  0
   25.6600  -33.5520  -13.6940 C   0  0  0  0  0  3  0  0  0  0  0  0
   26.9260  -33.0120  -13.3970 C   0  0  0  0  0  3  0  0  0  0  0  0
   27.2430  -31.7070  -13.8030 C   0  0  0  0  0  0  0  0  0  0  0  0
   28.7800  -31.0110  -13.4560 Cl  0  0  0  0  0  0  0  0  0  0  0  0
   26.3030  -30.9640  -14.5210 C   0  0  0  0  0  3  0  0  0  0  0  0
   25.0220  -31.4750  -14.7920 C   0  0  0  0  0  3  0  0  0  0  0  0
   25.0270  -23.5010  -15.3270 C   0  0  0  0  0  3  0  0  0  0  0  0
   22.0160  -24.1190  -12.8530 C   0  0  0  0  0  3  0  0  0  0  0  0
   21.5830  -23.0070  -11.8870 C   0  0  0  0  0  2  0  0  0  0  0  0
   22.8530  -22.2240  -11.6250 C   0  0  0  0  0  3  0  0  0  0  0  0
   23.6800  -22.3620  -12.9030 C   0  0  0  0  0  2  0  0  0  0  0  0
   23.1850  -23.5640  -13.5730 N   0  0  0  0  0  0  0  0  0  0  0  0
   23.7940  -24.1570  -14.6240 C   0  0  0  0  0  0  0  0  0  0  0  0
   23.3890  -25.2420  -15.0280 O   0  0  0  0  0  0  0  0  0  0  0  0
   20.0260  -25.4910  -13.2140 N   0  0  0  0  0  0  0  0  0  0  0  0
   20.8140  -24.5360  -13.7220 C   0  0  0  0  0  0  0  0  0  0  0  0
   20.5790  -23.9650  -14.7890 O   0  0  0  0  0  0  0  0  0  0  0  0
   20.3030  -25.9200  -12.3420 H   0  0  0  0  0  0  0  0  0  0  0  0
   18.7390  -25.8960  -13.7670 C   0  0  0  0  0  2  0  0  0  0  0  0
   15.4880  -23.2250  -12.6480 C   0  0  0  0  0  0  0  0  0  0  0  0
   16.5430  -23.4740  -11.7460 C   0  0  0  0  0  3  0  0  0  0  0  0
   17.5940  -24.3340  -12.1050 C   0  0  0  0  0  3  0  0  0  0  0  0
   15.4980  -23.8440  -13.9160 C   0  0  0  0  0  3  0  0  0  0  0  0
   16.5530  -24.7060  -14.2740 C   0  0  0  0  0  3  0  0  0  0  0  0
   17.6070  -24.9550  -13.3720 C   0  0  0  0  0  0  0  0  0  0  0  0
   12.3260  -23.6470  -13.1410 C   0  0  0  0  0  1  0  0  0  0  0  0
   13.0420  -22.5140  -12.4310 C   0  0  0  0  0  0  0  0  0  0  0  0
   12.2710  -21.5290  -11.8480 N   0  0  0  0  0  0  0  0  0  0  0  0
   12.9670  -20.5850  -10.9820 C   0  0  0  0  0  2  0  0  0  0  0  0
   14.7150  -20.8980  -11.3490 S   0  0  0  0  0  0  0  0  0  0  0  0
   14.3580  -22.3830  -12.2190 C   0  0  0  0  0  0  0  0  0  0  0  0
   11.2560  -21.5560  -11.8290 H   0  0  0  0  0  0  0  0  0  0  0  0
   23.5740  -22.8020  -10.5480 O   0  0  0  0  0  0  0  0  0  0  0  0
   23.7810  -23.7030  -10.7740 H   0  0  0  0  0  0  0  0  0  0  0  0
   24.6670  -22.7440  -16.6520 C   0  0  1  0  0  0  0  0  0  0  0  0
   25.9280  -22.0060  -17.1580 C   0  0  0  0  0  1  0  0  0  0  0  0
   24.1760  -23.6860  -17.7840 C   0  0  0  0  0  1  0  0  0  0  0  0
   23.5810  -21.6790  -16.4110 C   0  0  0  0  0  1  0  0  0  0  0  0
  1 41  1  0
  1  2  1  0
  2  3  2  0
  4  2  1  0
  4  7  1  0
  5  1  1  0
  6  4  1  0
  8  7  1  0
  9  8  2  0
 10 13  1  0
 10  9  1  0
 11 12  2  0
 13 15  2  0
 14 13  1  0
 14 11  1  0
 16 14  1  0
 17 11  1  0
 18 17  1  0
 18 19  1  0
 19 33  2  0
 20 18  1  0
 20 25  1  0
 21 22  1  0
 21 20  2  0
 22 23  2  0
 23 25  1  0
 23 24  1  0
 25 26  1  0
 26 32  2  0
 26 27  1  0
 27 28  1  0
 28 29  1  0
 30 31  1  0
 30 28  2  0
 32 30  1  0
 33 34  1  0
 33 32  1  0
 34 35  1  0
 35 36  2  0
 37 38  1  0
 37 36  1  0
 39 37  2  0
 40 39  1  0
 40 34  2  0
 41 47  1  0
 42 50  1  0
 42 43  1  0
 43 44  1  0
 44 67  1  0
 45 44  1  0
 46 45  1  0
 46 42  1  0
 47 46  1  0
 48 47  2  0
 49 52  1  0
 50 49  1  0
 51 50  2  0
 53 59  1  0
 53 49  1  0
 54 65  1  0
 54 55  1  0
 56 55  2  0
 57 54  2  0
 58 57  1  0
 58 59  2  0
 59 56  1  0
 60 61  1  0
 61 65  2  0
 61 62  1  0
 62 66  1  0
 62 63  1  0
 64 63  1  0
 65 64  1  0
 68 67  1  0
 69 72  1  1
 69 41  1  0
 70 69  1  0
 71 69  1  0
M  ISO  4   2 101   4 101  11 100  14 100
M  END
>  <TORSDO>  (168) 
F 16

>  <SCORE>  (168) 
-13.165

>  <name>  (168) 
167

>  <ligand_id>  (168) 
167

>  <original_smiles>  (168) 
[H]OC1([H])C([H])([H])N(C(=O)C([H])(N([H])C(=O)N([H])C([H])([H])C([H])([H])C([H])([H])C([H])([H])C(=O)N([H])C(=O)C([H])([H])C2([H])N=C(c3c([H])c([H])c(Cl)c([H])c3[H])c3c(sc(C([H])([H])[H])c3C([H])([H])[H])-n3c(C([H])([H])[H])nnc32)C(C([H])([H])[H])(C([H])([H])[H])C([H])([H])[H])C([H])(C(=O)N([H])C([H])([H])c2c([H])c([H])c(C3=C(C([H])([H])[H])N([H])C([H])([H])S3)c([H])c2[H])C1([H])[H]

>  <smiles>  (168) 
[H]OC1([H])C([H])([H])N(C(=O)C([H])(N([H])C(=O)N([H])C([H])([H])C([H])([H])C([H])([H])C([H])([H])C(=O)N([H])C(=O)C([H])([H])C2([H])N=C(c3c([H])c([H])c(Cl)c([H])c3[H])c3c(sc(C([H])([H])[H])c3C([H])([H])[H])-n3c(C([H])([H])[H])nnc32)C(C([H])([H])[H])(C([H])([H])[H])C([H])([H])[H])C([H])(C(=O)N([H])C([H])([H])c2c([H])c([H])c(C3=C(C([H])([H])[H])N([H])C([H])([H])S3)c([H])c2[H])C1([H])[H]

$$$$
168:0:0
     RDKit          3D

 82 88  0  0  1  0  0  0  0  0999 V2000
   27.4430  -27.2470  -16.6940 C   0  0  0  0  0  0  0  0  0  0  0  0
   26.2320  -27.5490  -17.2520 N   0  0  0  0  0  0  0  0  0  0  0  0
   27.7520  -27.0140  -15.3940 N   0  0  0  0  0  0  0  0  0  0  0  0
   28.4740  -27.1620  -17.5390 N   0  0  0  0  0  4  0  0  0  0  0  0
   26.2400  -27.6630  -18.2550 H   0  0  0  0  0  0  0  0  0  0  0  0
   28.7190  -26.9480  -15.1070 H   0  0  0  0  0  0  0  0  0  0  0  0
   28.3730  -27.3040  -18.5340 H   0  0  0  0  0  0  0  0  0  0  0  0
   29.4070  -26.9450  -17.2190 H   0  0  0  0  0  0  0  0  0  0  0  0
   25.8470  -24.7840  -15.3230 N   0  0  0  0  0  0  0  0  0  0  0  0
   26.8100  -25.1860  -14.5030 C   0  0  0  0  0  0  0  0  0  0  0  0
   27.4760  -24.4360  -13.7800 O   0  0  0  0  0  0  0  0  0  0  0  0
   26.8420  -26.5260  -14.4770 N   0  0  0  0  0  0  0  0  0  0  0  0
   25.4130  -25.4850  -15.8980 H   0  0  0  0  0  0  0  0  0  0  0  0
   26.0000  -27.0140  -14.7410 H   0  0  0  0  0  0  0  0  0  0  0  0
   24.9780  -23.6320  -15.1480 C   0  0  0  0  0  3  0  0  0  0  0  0
   21.7790  -23.8350  -12.8640 C   0  0  0  0  0  3  0  0  0  0  0  0
   21.3000  -22.5850  -12.1100 C   0  0  0  0  0  2  0  0  0  0  0  0
   22.5620  -21.7830  -11.8740 C   0  0  0  0  0  3  0  0  0  0  0  0
   23.4740  -22.1270  -13.0520 C   0  0  0  0  0  2  0  0  0  0  0  0
   23.0050  -23.4160  -13.5720 N   0  0  0  0  0  0  0  0  0  0  0  0
   23.6800  -24.1750  -14.4720 C   0  0  0  0  0  0  0  0  0  0  0  0
   23.3250  -25.3310  -14.7410 O   0  0  0  0  0  0  0  0  0  0  0  0
   19.8510  -25.2920  -13.2060 N   0  0  0  0  0  0  0  0  0  0  0  0
   20.6390  -24.3600  -13.7540 C   0  0  0  0  0  0  0  0  0  0  0  0
   20.4490  -23.8920  -14.8790 O   0  0  0  0  0  0  0  0  0  0  0  0
   20.0900  -25.6320  -12.2840 H   0  0  0  0  0  0  0  0  0  0  0  0
   18.6080  -25.7830  -13.7840 C   0  0  0  0  0  2  0  0  0  0  0  0
   15.1590  -23.3400  -12.7420 C   0  0  0  0  0  0  0  0  0  0  0  0
   16.1720  -23.5780  -11.7900 C   0  0  0  0  0  3  0  0  0  0  0  0
   17.2880  -24.3640  -12.1240 C   0  0  0  0  0  3  0  0  0  0  0  0
   15.2770  -23.8940  -14.0340 C   0  0  0  0  0  3  0  0  0  0  0  0
   16.3970  -24.6800  -14.3680 C   0  0  0  0  0  3  0  0  0  0  0  0
   17.4070  -24.9200  -13.4160 C   0  0  0  0  0  0  0  0  0  0  0  0
   12.0760  -23.8090  -13.5750 C   0  0  0  0  0  1  0  0  0  0  0  0
   12.6760  -22.7310  -12.6940 C   0  0  0  0  0  0  0  0  0  0  0  0
   11.8150  -21.8340  -12.0950 N   0  0  0  0  0  0  0  0  0  0  0  0
   12.3900  -20.9590  -11.0790 C   0  0  0  0  0  2  0  0  0  0  0  0
   14.1760  -21.1800  -11.3040 S   0  0  0  0  0  0  0  0  0  0  0  0
   13.9610  -22.5810  -12.3430 C   0  0  0  0  0  0  0  0  0  0  0  0
   10.8050  -21.8960  -12.1740 H   0  0  0  0  0  0  0  0  0  0  0  0
   23.1880  -22.1930  -10.6690 O   0  0  0  0  0  0  0  0  0  0  0  0
   23.3850  -23.1220  -10.7320 H   0  0  0  0  0  0  0  0  0  0  0  0
   24.7360  -23.0210  -16.5770 C   0  0  1  0  0  0  0  0  0  0  0  0
   26.0570  -22.3900  -17.0730 C   0  0  0  0  0  1  0  0  0  0  0  0
   24.2840  -24.0710  -17.6250 C   0  0  0  0  0  1  0  0  0  0  0  0
   23.6800  -21.8970  -16.5450 C   0  0  0  0  0  1  0  0  0  0  0  0
   24.7490  -29.2020  -17.1260 N   0  0  0  0  0  2  0  0  0  0  0  0
   25.0890  -28.0930  -16.6420 N   0  0  0  0  0  2  0  0  0  0  0  0
   23.5110  -29.7880  -17.1640 C   0  0  0  0  0  0  0  0  0  0  0  0
   23.4790  -31.0650  -17.5880 N   0  0  0  0  0  4  0  0  0  0  0  0
   22.2910  -29.2490  -16.8700 N   0  0  0  0  0  0  0  0  0  0  0  0
   24.3370  -31.4580  -17.9500 H   0  0  0  0  0  0  0  0  0  0  0  0
   22.8640  -31.7070  -17.1000 H   0  0  0  0  0  0  0  0  0  0  0  0
   22.1930  -28.3070  -16.5130 H   0  0  0  0  0  0  0  0  0  0  0  0
   20.3820  -30.6450  -16.5420 C   0  0  0  0  0  0  0  0  0  0  0  0
   19.9790  -30.2240  -15.4550 O   0  0  0  0  0  0  0  0  0  0  0  0
   21.1240  -29.8970  -17.3850 N   0  0  0  0  0  0  0  0  0  0  0  0
   21.4410  -30.2920  -18.2630 H   0  0  0  0  0  0  0  0  0  0  0  0
   20.2000  -32.1290  -16.9160 C   0  0  0  0  0  2  0  0  0  0  0  0
   20.7850  -33.0600  -15.8180 C   0  0  0  0  0  3  0  0  0  0  0  0
   22.1630  -32.6480  -15.5220 N   0  0  0  0  0  0  0  0  0  0  0  0
   20.7590  -34.5450  -16.1410 C   0  0  0  0  0  0  0  0  0  0  0  0
   20.4530  -35.1050  -17.3180 N   0  0  0  0  0  0  0  0  0  0  0  0
   20.6620  -36.4620  -17.1520 N   0  0  0  0  0  0  0  0  0  0  0  0
   21.0910  -36.6140  -15.8940 C   0  0  0  0  0  0  0  0  0  0  0  0
   21.4980  -37.9370  -15.3160 C   0  0  0  0  0  1  0  0  0  0  0  0
   21.1420  -35.4470  -15.2160 N   0  0  0  0  0  0  0  0  0  0  0  0
   21.4920  -35.1780  -13.8770 C   0  0  0  0  0  0  0  0  0  0  0  0
   21.0450  -36.1470  -12.5090 S   0  0  0  0  0  0  0  0  0  0  0  0
   21.7660  -35.0070  -11.4090 C   0  0  0  0  0  0  0  0  0  0  0  0
   21.7180  -35.2750   -9.9390 C   0  0  0  0  0  1  0  0  0  0  0  0
   22.3050  -33.9220  -12.0670 C   0  0  0  0  0  0  0  0  0  0  0  0
   22.9290  -32.7600  -11.3350 C   0  0  0  0  0  1  0  0  0  0  0  0
   22.1830  -34.0480  -13.4980 C   0  0  0  0  0  0  0  0  0  0  0  0
   22.7610  -33.0610  -14.4660 C   0  0  0  0  0  0  0  0  0  0  0  0
   24.1230  -32.5420  -14.2180 C   0  0  0  0  0  0  0  0  0  0  0  0
   25.1810  -33.4370  -13.9430 C   0  0  0  0  0  3  0  0  0  0  0  0
   26.4720  -32.9400  -13.6860 C   0  0  0  0  0  3  0  0  0  0  0  0
   26.7120  -31.5530  -13.7070 C   0  0  0  0  0  0  0  0  0  0  0  0
   28.2910  -30.9410  -13.3930 Cl  0  0  0  0  0  0  0  0  0  0  0  0
   25.6590  -30.6600  -13.9730 C   0  0  0  0  0  3  0  0  0  0  0  0
   24.3640  -31.1530  -14.2250 C   0  0  0  0  0  3  0  0  0  0  0  0
  1  3  1  0
  2  1  1  0
  2 48  1  0
  3  6  1  0
  3 12  1  0
  4  8  1  0
  4  1  2  0
  5  2  1  0
  7  4  1  0
  9 15  1  0
  9 10  1  0
 10 12  1  0
 10 11  2  0
 13  9  1  0
 14 12  1  0
 15 21  1  0
 16 24  1  0
 16 17  1  0
 17 18  1  0
 18 41  1  0
 19 18  1  0
 20 19  1  0
 20 16  1  0
 21 20  1  0
 22 21  2  0
 23 26  1  0
 24 23  1  0
 25 24  2  0
 27 33  1  0
 27 23  1  0
 28 39  1  0
 28 29  1  0
 30 29  2  0
 31 28  2  0
 32 31  1  0
 32 33  2  0
 33 30  1  0
 34 35  1  0
 35 39  2  0
 35 36  1  0
 36 37  1  0
 38 37  1  0
 39 38  1  0
 40 36  1  0
 42 41  1  0
 43 46  1  1
 43 15  1  0
 44 43  1  0
 45 43  1  0
 47 48  1  0
 49 47  1  0
 49 51  1  0
 50 49  2  0
 50 53  1  0
 51 54  1  0
 52 50  1  0
 55 56  2  0
 57 51  1  0
 57 55  1  0
 58 57  1  0
 59 55  1  0
 60 59  1  0
 60 61  1  0
 61 75  2  0
 62 60  1  0
 62 67  1  0
 63 64  1  0
 63 62  2  0
 64 65  2  0
 65 66  1  0
 65 67  1  0
 67 68  1  0
 68 74  2  0
 68 69  1  0
 69 70  1  0
 70 71  1  0
 72 70  2  0
 72 73  1  0
 74 72  1  0
 75 76  1  0
 75 74  1  0
 76 77  1  0
 77 78  2  0
 79 78  1  0
 79 80  1  0
 81 79  2  0
 82 76  2  0
 82 81  1  0
M  ISO  4  10 101  12 101  55 100  57 100
M  END
>  <TORSDO>  (169) 
F 15

>  <SCORE>  (169) 
-11.722

>  <name>  (169) 
168

>  <ligand_id>  (169) 
168

>  <original_smiles>  (169) 
[H]OC1([H])C([H])([H])N(C(=O)C([H])(N([H])C(=O)N([H])N([H])C(N([H])N=NC(N([H])[H])=[N+]([H])N([H])C(=O)C([H])([H])C2([H])N=C(c3c([H])c([H])c(Cl)c([H])c3[H])c3c(sc(C([H])([H])[H])c3C([H])([H])[H])-n3c(C([H])([H])[H])nnc32)=[N+]([H])[H])C(C([H])([H])[H])(C([H])([H])[H])C([H])([H])[H])C([H])(C(=O)N([H])C([H])([H])c2c([H])c([H])c(C3=C(C([H])([H])[H])N([H])C([H])([H])S3)c([H])c2[H])C1([H])[H]

>  <smiles>  (169) 
[H]OC1([H])C([H])([H])N(C(=O)C([H])(N([H])C(=O)N([H])N([H])C(N([H])N=NC(N([H])[H])=[N+]([H])N([H])C(=O)C([H])([H])C2([H])N=C(c3c([H])c([H])c(Cl)c([H])c3[H])c3c(sc(C([H])([H])[H])c3C([H])([H])[H])-n3c(C([H])([H])[H])nnc32)=[N+]([H])[H])C(C([H])([H])[H])(C([H])([H])[H])C([H])([H])[H])C([H])(C(=O)N([H])C([H])([H])c2c([H])c([H])c(C3=C(C([H])([H])[H])N([H])C([H])([H])S3)c([H])c2[H])C1([H])[H]

$$$$
169:0:0
     RDKit          3D

 73 80  0  0  1  0  0  0  0  0999 V2000
   25.7960  -24.6480  -15.4070 N   0  0  0  0  0  0  0  0  0  0  0  0
   26.7410  -25.1750  -14.6400 C   0  0  0  0  0  0  0  0  0  0  0  0
   27.3190  -24.5480  -13.7460 O   0  0  0  0  0  0  0  0  0  0  0  0
   26.8990  -26.4880  -14.9070 N   0  0  0  0  0  0  0  0  0  0  0  0
   25.4550  -25.2370  -16.1490 H   0  0  0  0  0  0  0  0  0  0  0  0
   27.5920  -26.9580  -14.3410 H   0  0  0  0  0  0  0  0  0  0  0  0
   24.9140  -23.5320  -15.1130 C   0  0  0  0  0  3  0  0  0  0  0  0
   21.7520  -23.7790  -12.7730 C   0  0  0  0  0  3  0  0  0  0  0  0
   21.2510  -22.5300  -12.0330 C   0  0  0  0  0  2  0  0  0  0  0  0
   22.4960  -21.6920  -11.8280 C   0  0  0  0  0  3  0  0  0  0  0  0
   23.4000  -22.0280  -13.0130 C   0  0  0  0  0  2  0  0  0  0  0  0
   22.9620  -23.3370  -13.5020 N   0  0  0  0  0  0  0  0  0  0  0  0
   23.6440  -24.0940  -14.3960 C   0  0  0  0  0  0  0  0  0  0  0  0
   23.2950  -25.2530  -14.6280 O   0  0  0  0  0  0  0  0  0  0  0  0
   19.8480  -25.2790  -13.0610 N   0  0  0  0  0  0  0  0  0  0  0  0
   20.6170  -24.3510  -13.6410 C   0  0  0  0  0  0  0  0  0  0  0  0
   20.4110  -23.9180  -14.7780 O   0  0  0  0  0  0  0  0  0  0  0  0
   20.1010  -25.5900  -12.1340 H   0  0  0  0  0  0  0  0  0  0  0  0
   18.6090  -25.8090  -13.6120 C   0  0  0  0  0  2  0  0  0  0  0  0
   15.1430  -23.3370  -12.7030 C   0  0  0  0  0  0  0  0  0  0  0  0
   16.1480  -23.5320  -11.7330 C   0  0  0  0  0  3  0  0  0  0  0  0
   17.2690  -24.3290  -12.0230 C   0  0  0  0  0  3  0  0  0  0  0  0
   15.2750  -23.9430  -13.9710 C   0  0  0  0  0  3  0  0  0  0  0  0
   16.4000  -24.7400  -14.2610 C   0  0  0  0  0  3  0  0  0  0  0  0
   17.4010  -24.9370  -13.2900 C   0  0  0  0  0  0  0  0  0  0  0  0
   12.0730  -23.8470  -13.5500 C   0  0  0  0  0  1  0  0  0  0  0  0
   12.6580  -22.7330  -12.7060 C   0  0  0  0  0  0  0  0  0  0  0  0
   11.7890  -21.8170  -12.1500 N   0  0  0  0  0  0  0  0  0  0  0  0
   12.3500  -20.9030  -11.1620 C   0  0  0  0  0  2  0  0  0  0  0  0
   14.1380  -21.1270  -11.3590 S   0  0  0  0  0  0  0  0  0  0  0  0
   13.9390  -22.5650  -12.3470 C   0  0  0  0  0  0  0  0  0  0  0  0
   10.7800  -21.8830  -12.2420 H   0  0  0  0  0  0  0  0  0  0  0  0
   23.1510  -22.0690  -10.6260 O   0  0  0  0  0  0  0  0  0  0  0  0
   23.3780  -22.9920  -10.6860 H   0  0  0  0  0  0  0  0  0  0  0  0
   24.6110  -22.8460  -16.4950 C   0  0  1  0  0  0  0  0  0  0  0  0
   25.9090  -22.1860  -17.0130 C   0  0  0  0  0  1  0  0  0  0  0  0
   24.1160  -23.8220  -17.5930 C   0  0  0  0  0  1  0  0  0  0  0  0
   23.5600  -21.7290  -16.3420 C   0  0  0  0  0  1  0  0  0  0  0  0
   26.2190  -27.3300  -15.9390 C   0  0  0  0  0  3  0  0  0  0  0  0
   24.6600  -27.4240  -15.7960 C   0  0  0  0  0  3  0  0  0  0  0  0
   22.6890  -28.9120  -16.4570 C   0  0  0  0  0  3  0  0  0  0  0  0
   24.2060  -28.5940  -17.9930 C   0  0  0  0  0  3  0  0  0  0  0  0
   22.3510  -29.6040  -17.6010 C   0  0  0  0  0  0  0  0  0  0  0  0
   23.3110  -29.3840  -18.5850 N   0  0  0  0  0  0  0  0  0  0  0  0
   23.9240  -28.2950  -16.7150 N   0  0  0  0  0  0  0  0  0  0  0  0
   20.5530  -31.1620  -16.8980 C   0  0  0  0  0  0  0  0  0  0  0  0
   20.0660  -30.6820  -15.8660 O   0  0  0  0  0  0  0  0  0  0  0  0
   21.2420  -30.4660  -17.8230 N   0  0  0  0  0  0  0  0  0  0  0  0
   21.3150  -30.9660  -18.6970 H   0  0  0  0  0  0  0  0  0  0  0  0
   20.4850  -32.6710  -17.1600 C   0  0  0  0  0  2  0  0  0  0  0  0
   21.0880  -33.4720  -15.9740 C   0  0  0  0  0  3  0  0  0  0  0  0
   22.4090  -32.9400  -15.6190 N   0  0  0  0  0  0  0  0  0  0  0  0
   21.1970  -34.9670  -16.2130 C   0  0  0  0  0  0  0  0  0  0  0  0
   21.0220  -35.6080  -17.3760 N   0  0  0  0  0  0  0  0  0  0  0  0
   21.3150  -36.9340  -17.1200 N   0  0  0  0  0  0  0  0  0  0  0  0
   21.6600  -36.9890  -15.8300 C   0  0  0  0  0  0  0  0  0  0  0  0
   22.1140  -38.2450  -15.1490 C   0  0  0  0  0  1  0  0  0  0  0  0
   21.5820  -35.7870  -15.2180 N   0  0  0  0  0  0  0  0  0  0  0  0
   21.8240  -35.4200  -13.8770 C   0  0  0  0  0  0  0  0  0  0  0  0
   21.3530  -36.3400  -12.4850 S   0  0  0  0  0  0  0  0  0  0  0  0
   21.9230  -35.0930  -11.4130 C   0  0  0  0  0  0  0  0  0  0  0  0
   21.7970  -35.2800   -9.9350 C   0  0  0  0  0  1  0  0  0  0  0  0
   22.4300  -34.0100  -12.0980 C   0  0  0  0  0  0  0  0  0  0  0  0
   22.9240  -32.7710  -11.3970 C   0  0  0  0  0  1  0  0  0  0  0  0
   22.4090  -34.2220  -13.5250 C   0  0  0  0  0  0  0  0  0  0  0  0
   22.9760  -33.2490  -14.5130 C   0  0  0  0  0  0  0  0  0  0  0  0
   24.2840  -32.6270  -14.2160 C   0  0  0  0  0  0  0  0  0  0  0  0
   25.3300  -33.4030  -13.6740 C   0  0  0  0  0  3  0  0  0  0  0  0
   26.5670  -32.8060  -13.3660 C   0  0  0  0  0  3  0  0  0  0  0  0
   26.7600  -31.4310  -13.5920 C   0  0  0  0  0  0  0  0  0  0  0  0
   28.2700  -30.6890  -13.2190 Cl  0  0  0  0  0  0  0  0  0  0  0  0
   25.7120  -30.6550  -14.1120 C   0  0  0  0  0  3  0  0  0  0  0  0
   24.4800  -31.2500  -14.4330 C   0  0  0  0  0  3  0  0  0  0  0  0
  1  7  1  0
  1  2  1  0
  2  3  2  0
  4  2  1  0
  4  6  1  0
  5  1  1  0
  7 13  1  0
  8 16  1  0
  8  9  1  0
  9 10  1  0
 10 33  1  0
 11 10  1  0
 12 11  1  0
 12  8  1  0
 13 12  1  0
 14 13  2  0
 15 18  1  0
 16 15  1  0
 17 16  2  0
 19 25  1  0
 19 15  1  0
 20 31  1  0
 20 21  1  0
 22 21  2  0
 23 20  2  0
 24 23  1  0
 24 25  2  0
 25 22  1  0
 26 27  1  0
 27 31  2  0
 27 28  1  0
 28 29  1  0
 30 29  1  0
 31 30  1  0
 32 28  1  0
 34 33  1  0
 35 38  1  1
 35  7  1  0
 36 35  1  0
 37 35  1  0
 39 40  2  0
 39  4  1  0
 42 45  1  0
 43 41  2  0
 44 42  2  0
 44 43  1  0
 45 41  1  0
 45 40  1  0
 46 47  2  0
 48 43  1  0
 48 46  1  0
 49 48  1  0
 50 46  1  0
 51 50  1  0
 51 52  1  0
 52 66  2  0
 53 51  1  0
 53 58  1  0
 54 55  1  0
 54 53  2  0
 55 56  2  0
 56 58  1  0
 56 57  1  0
 58 59  1  0
 59 65  2  0
 59 60  1  0
 60 61  1  0
 61 62  1  0
 63 61  2  0
 63 64  1  0
 65 63  1  0
 66 67  1  0
 66 65  1  0
 67 68  1  0
 68 69  2  0
 70 69  1  0
 70 71  1  0
 72 70  2  0
 73 67  2  0
 73 72  1  0
M  ISO  4   2 101   4 101  46 100  48 100
M  END
>  <TORSDO>  (170) 
F 15

>  <SCORE>  (170) 
-13.348

>  <name>  (170) 
169

>  <ligand_id>  (170) 
169

>  <original_smiles>  (170) 
[H]OC1([H])C([H])([H])N(C(=O)C([H])(N([H])C(=O)N([H])C([H])([H])C([H])([H])n2c([H])nc(N([H])C(=O)C([H])([H])C3([H])N=C(c4c([H])c([H])c(Cl)c([H])c4[H])c4c(sc(C([H])([H])[H])c4C([H])([H])[H])-n4c(C([H])([H])[H])nnc43)c2[H])C(C([H])([H])[H])(C([H])([H])[H])C([H])([H])[H])C([H])(C(=O)N([H])C([H])([H])c2c([H])c([H])c(C3=C(C([H])([H])[H])N([H])C([H])([H])S3)c([H])c2[H])C1([H])[H]

>  <smiles>  (170) 
[H]OC1([H])C([H])([H])N(C(=O)C([H])(N([H])C(=O)N([H])C([H])([H])C([H])([H])n2c([H])nc(N([H])C(=O)C([H])([H])C3([H])N=C(c4c([H])c([H])c(Cl)c([H])c4[H])c4c(sc(C([H])([H])[H])c4C([H])([H])[H])-n4c(C([H])([H])[H])nnc43)c2[H])C(C([H])([H])[H])(C([H])([H])[H])C([H])([H])[H])C([H])(C(=O)N([H])C([H])([H])c2c([H])c([H])c(C3=C(C([H])([H])[H])N([H])C([H])([H])S3)c([H])c2[H])C1([H])[H]

$$$$
170:0:0
     RDKit          3D

 74 81  0  0  1  0  0  0  0  0999 V2000
   25.9140  -24.6180  -15.4800 N   0  0  0  0  0  0  0  0  0  0  0  0
   26.6750  -25.3210  -14.6560 C   0  0  0  0  0  0  0  0  0  0  0  0
   27.2290  -24.8170  -13.6640 O   0  0  0  0  0  0  0  0  0  0  0  0
   26.6460  -26.6300  -15.0390 N   0  0  0  0  0  0  0  0  0  0  0  0
   25.6310  -25.1720  -16.2730 H   0  0  0  0  0  0  0  0  0  0  0  0
   27.2190  -27.3380  -14.5990 H   0  0  0  0  0  0  0  0  0  0  0  0
   25.4990  -28.1470  -16.5400 N   0  0  0  0  0  2  0  0  0  0  0  0
   25.5580  -27.0790  -15.8930 N   0  0  0  0  0  2  0  0  0  0  0  0
   23.4250  -29.4260  -17.1270 C   0  0  0  0  0  2  0  0  0  0  0  0
   24.6760  -28.1480  -18.8700 C   0  0  0  0  0  2  0  0  0  0  0  0
   24.2490  -28.1650  -17.3950 C   0  0  0  0  0  3  0  0  0  0  0  0
   22.1150  -29.4360  -17.9510 C   0  0  0  0  0  3  0  0  0  0  0  0
   23.4720  -28.4080  -19.7230 N   0  0  0  0  0  0  0  0  0  0  0  0
   22.3680  -28.8470  -19.3070 N   0  0  0  0  0  0  0  0  0  0  0  0
   20.8710  -31.5120  -17.2710 C   0  0  0  0  0  0  0  0  0  0  0  0
   20.2840  -31.0010  -16.3140 O   0  0  0  0  0  0  0  0  0  0  0  0
   21.5940  -30.7970  -18.1470 N   0  0  0  0  0  0  0  0  0  0  0  0
   21.9460  -31.2940  -18.9540 H   0  0  0  0  0  0  0  0  0  0  0  0
   20.9400  -33.0440  -17.3980 C   0  0  0  0  0  2  0  0  0  0  0  0
   21.4890  -33.7200  -16.1080 C   0  0  0  0  0  3  0  0  0  0  0  0
   22.8210  -33.2000  -15.7740 N   0  0  0  0  0  0  0  0  0  0  0  0
   21.5340  -35.2370  -16.1640 C   0  0  0  0  0  0  0  0  0  0  0  0
   21.3560  -36.0070  -17.2430 N   0  0  0  0  0  0  0  0  0  0  0  0
   21.5810  -37.3030  -16.8200 N   0  0  0  0  0  0  0  0  0  0  0  0
   21.8970  -37.2120  -15.5230 C   0  0  0  0  0  0  0  0  0  0  0  0
   22.2890  -38.3910  -14.6840 C   0  0  0  0  0  1  0  0  0  0  0  0
   21.8540  -35.9440  -15.0620 N   0  0  0  0  0  0  0  0  0  0  0  0
   22.0710  -35.4270  -13.7690 C   0  0  0  0  0  0  0  0  0  0  0  0
   21.5200  -36.1470  -12.2910 S   0  0  0  0  0  0  0  0  0  0  0  0
   22.1110  -34.7980  -11.3610 C   0  0  0  0  0  0  0  0  0  0  0  0
   21.9350  -34.8000   -9.8760 C   0  0  0  0  0  1  0  0  0  0  0  0
   22.6820  -33.8290  -12.1580 C   0  0  0  0  0  0  0  0  0  0  0  0
   23.1950  -32.5230  -11.6060 C   0  0  0  0  0  1  0  0  0  0  0  0
   22.6970  -34.2210  -13.5450 C   0  0  0  0  0  0  0  0  0  0  0  0
   23.3440  -33.4050  -14.6190 C   0  0  0  0  0  0  0  0  0  0  0  0
   24.6750  -32.8150  -14.3420 C   0  0  0  0  0  0  0  0  0  0  0  0
   25.6970  -33.5670  -13.7190 C   0  0  0  0  0  3  0  0  0  0  0  0
   26.9420  -32.9720  -13.4420 C   0  0  0  0  0  3  0  0  0  0  0  0
   27.1790  -31.6310  -13.8040 C   0  0  0  0  0  0  0  0  0  0  0  0
   28.7030  -30.8920  -13.4840 Cl  0  0  0  0  0  0  0  0  0  0  0  0
   26.1640  -30.8830  -14.4170 C   0  0  0  0  0  3  0  0  0  0  0  0
   24.9150  -31.4700  -14.6640 C   0  0  0  0  0  3  0  0  0  0  0  0
   24.9600  -23.5670  -15.2130 C   0  0  0  0  0  3  0  0  0  0  0  0
   21.8700  -23.9530  -12.8040 C   0  0  0  0  0  3  0  0  0  0  0  0
   21.4220  -22.7470  -11.9630 C   0  0  0  0  0  2  0  0  0  0  0  0
   22.6920  -21.9540  -11.7340 C   0  0  0  0  0  3  0  0  0  0  0  0
   23.5530  -22.2270  -12.9640 C   0  0  0  0  0  2  0  0  0  0  0  0
   23.0680  -23.4890  -13.5330 N   0  0  0  0  0  0  0  0  0  0  0  0
   23.7110  -24.1880  -14.5020 C   0  0  0  0  0  0  0  0  0  0  0  0
   23.3450  -25.3240  -14.8230 O   0  0  0  0  0  0  0  0  0  0  0  0
   19.9000  -25.3520  -13.1260 N   0  0  0  0  0  0  0  0  0  0  0  0
   20.6950  -24.4280  -13.6750 C   0  0  0  0  0  0  0  0  0  0  0  0
   20.4820  -23.9260  -14.7810 O   0  0  0  0  0  0  0  0  0  0  0  0
   20.1620  -25.7240  -12.2240 H   0  0  0  0  0  0  0  0  0  0  0  0
   18.6270  -25.8020  -13.6730 C   0  0  0  0  0  2  0  0  0  0  0  0
   15.2980  -23.1960  -12.6320 C   0  0  0  0  0  0  0  0  0  0  0  0
   16.3420  -23.4120  -11.7100 C   0  0  0  0  0  3  0  0  0  0  0  0
   17.4210  -24.2510  -12.0440 C   0  0  0  0  0  3  0  0  0  0  0  0
   15.3450  -23.8240  -13.8950 C   0  0  0  0  0  3  0  0  0  0  0  0
   16.4260  -24.6630  -14.2290 C   0  0  0  0  0  3  0  0  0  0  0  0
   17.4680  -24.8820  -13.3060 C   0  0  0  0  0  0  0  0  0  0  0  0
   12.1600  -23.6740  -13.2140 C   0  0  0  0  0  1  0  0  0  0  0  0
   12.8330  -22.5330  -12.4790 C   0  0  0  0  0  0  0  0  0  0  0  0
   12.0290  -21.5660  -11.9100 N   0  0  0  0  0  0  0  0  0  0  0  0
   12.6840  -20.6120  -11.0240 C   0  0  0  0  0  2  0  0  0  0  0  0
   14.4470  -20.8920  -11.3440 S   0  0  0  0  0  0  0  0  0  0  0  0
   14.1410  -22.3780  -12.2310 C   0  0  0  0  0  0  0  0  0  0  0  0
   11.0150  -21.6180  -11.9130 H   0  0  0  0  0  0  0  0  0  0  0  0
   23.3700  -22.4300  -10.5840 O   0  0  0  0  0  0  0  0  0  0  0  0
   23.5740  -23.3510  -10.7140 H   0  0  0  0  0  0  0  0  0  0  0  0
   24.6450  -22.9390  -16.6140 C   0  0  1  0  0  0  0  0  0  0  0  0
   25.9310  -22.2780  -17.1650 C   0  0  0  0  0  1  0  0  0  0  0  0
   24.1520  -23.9710  -17.6640 C   0  0  0  0  0  1  0  0  0  0  0  0
   23.5780  -21.8340  -16.4980 C   0  0  0  0  0  1  0  0  0  0  0  0
  1 43  1  0
  1  2  1  0
  2  3  2  0
  4  2  1  0
  4  6  1  0
  5  1  1  0
  7  8  1  0
  8  4  1  0
 10 11  1  0
 11  9  1  0
 11  7  1  0
 12 17  1  0
 12  9  1  0
 13 14  2  0
 13 10  1  0
 14 12  1  0
 15 16  2  0
 17 15  1  0
 18 17  1  0
 19 15  1  0
 20 19  1  0
 20 21  1  0
 21 35  2  0
 22 20  1  0
 22 27  1  0
 23 24  1  0
 23 22  2  0
 24 25  2  0
 25 27  1  0
 25 26  1  0
 27 28  1  0
 28 34  2  0
 28 29  1  0
 29 30  1  0
 30 31  1  0
 32 33  1  0
 32 30  2  0
 34 32  1  0
 35 36  1  0
 35 34  1  0
 36 37  1  0
 37 38  2  0
 39 40  1  0
 39 38  1  0
 41 39  2  0
 42 41  1  0
 42 36  2  0
 43 49  1  0
 44 52  1  0
 44 45  1  0
 45 46  1  0
 46 69  1  0
 47 46  1  0
 48 47  1  0
 48 44  1  0
 49 48  1  0
 50 49  2  0
 51 54  1  0
 52 51  1  0
 53 52  2  0
 55 61  1  0
 55 51  1  0
 56 67  1  0
 56 57  1  0
 58 57  2  0
 59 56  2  0
 60 59  1  0
 60 61  2  0
 61 58  1  0
 62 63  1  0
 63 67  2  0
 63 64  1  0
 64 65  1  0
 66 65  1  0
 67 66  1  0
 68 64  1  0
 70 69  1  0
 71 74  1  1
 71 43  1  0
 72 71  1  0
 73 71  1  0
M  ISO  4   2 101   4 101  15 100  17 100
M  END
>  <TORSDO>  (171) 
F 14

>  <SCORE>  (171) 
-15.147

>  <name>  (171) 
170

>  <ligand_id>  (171) 
170

>  <original_smiles>  (171) 
[H]OC1([H])C([H])([H])N(C(=O)C([H])(N([H])C(=O)N([H])N=NC2([H])C([H])([H])N=NC([H])(N([H])C(=O)C([H])([H])C3([H])N=C(c4c([H])c([H])c(Cl)c([H])c4[H])c4c(sc(C([H])([H])[H])c4C([H])([H])[H])-n4c(C([H])([H])[H])nnc43)C2([H])[H])C(C([H])([H])[H])(C([H])([H])[H])C([H])([H])[H])C([H])(C(=O)N([H])C([H])([H])c2c([H])c([H])c(C3=C(C([H])([H])[H])N([H])C([H])([H])S3)c([H])c2[H])C1([H])[H]

>  <smiles>  (171) 
[H]OC1([H])C([H])([H])N(C(=O)C([H])(N([H])C(=O)N([H])N=NC2([H])C([H])([H])N=NC([H])(N([H])C(=O)C([H])([H])C3([H])N=C(c4c([H])c([H])c(Cl)c([H])c4[H])c4c(sc(C([H])([H])[H])c4C([H])([H])[H])-n4c(C([H])([H])[H])nnc43)C2([H])[H])C(C([H])([H])[H])(C([H])([H])[H])C([H])([H])[H])C([H])(C(=O)N([H])C([H])([H])c2c([H])c([H])c(C3=C(C([H])([H])[H])N([H])C([H])([H])S3)c([H])c2[H])C1([H])[H]

$$$$
171:0:0
     RDKit          3D

 79 85  0  0  1  0  0  0  0  0999 V2000
   25.9450  -27.5790  -13.9520 C   0  0  0  0  0  2  0  0  0  0  0  0
   23.5630  -27.7240  -14.7690 C   0  0  0  0  0  0  0  0  0  0  0  0
   23.1250  -26.9820  -13.7480 N   0  0  0  0  0  4  0  0  0  0  0  0
   24.8800  -27.9690  -14.9040 N   0  0  0  0  0  0  0  0  0  0  0  0
   22.6460  -28.2240  -15.6140 N   0  0  0  0  0  0  0  0  0  0  0  0
   23.7490  -26.6680  -13.0180 H   0  0  0  0  0  0  0  0  0  0  0  0
   22.1490  -26.7420  -13.6310 H   0  0  0  0  0  0  0  0  0  0  0  0
   25.1840  -28.4470  -15.7400 H   0  0  0  0  0  0  0  0  0  0  0  0
   21.6810  -27.9690  -15.4550 H   0  0  0  0  0  0  0  0  0  0  0  0
   22.8070  -29.1500  -16.7520 C   0  0  0  0  0  2  0  0  0  0  0  0
   20.4080  -29.9280  -16.3880 C   0  0  0  0  0  1  0  0  0  0  0  0
   21.8870  -30.3750  -16.5400 C   0  0  0  0  0  3  0  0  0  0  0  0
   21.3100  -32.4500  -17.8900 C   0  0  0  0  0  0  0  0  0  0  0  0
   20.1720  -32.0940  -18.0780 O   0  0  0  0  0  0  0  0  0  0  0  0
   22.1850  -31.5180  -17.4560 N   0  0  0  0  0  0  0  0  0  0  0  0
   23.0940  -31.9310  -17.2900 H   0  0  0  0  0  0  0  0  0  0  0  0
   21.6340  -33.9610  -17.7820 C   0  0  0  0  0  2  0  0  0  0  0  0
   21.9530  -34.2710  -16.2950 C   0  0  0  0  0  3  0  0  0  0  0  0
   23.2330  -33.6330  -16.0110 N   0  0  0  0  0  0  0  0  0  0  0  0
   22.0150  -35.7110  -15.8320 C   0  0  0  0  0  0  0  0  0  0  0  0
   21.9750  -36.8130  -16.5840 N   0  0  0  0  0  0  0  0  0  0  0  0
   22.1870  -37.8660  -15.7110 N   0  0  0  0  0  0  0  0  0  0  0  0
   22.3440  -37.3160  -14.5020 C   0  0  0  0  0  0  0  0  0  0  0  0
   22.6700  -38.1010  -13.2690 C   0  0  0  0  0  1  0  0  0  0  0  0
   22.2130  -35.9720  -14.5190 N   0  0  0  0  0  0  0  0  0  0  0  0
   22.2700  -35.0320  -13.4670 C   0  0  0  0  0  0  0  0  0  0  0  0
   21.5690  -35.2310  -11.8950 S   0  0  0  0  0  0  0  0  0  0  0  0
   22.0090  -33.6090  -11.4370 C   0  0  0  0  0  0  0  0  0  0  0  0
   21.6620  -33.1150  -10.0690 C   0  0  0  0  0  1  0  0  0  0  0  0
   22.6480  -32.9370  -12.4570 C   0  0  0  0  0  0  0  0  0  0  0  0
   23.0660  -31.4900  -12.3510 C   0  0  0  0  0  1  0  0  0  0  0  0
   22.8400  -33.7820  -13.6070 C   0  0  0  0  0  0  0  0  0  0  0  0
   23.5920  -33.3600  -14.8230 C   0  0  0  0  0  0  0  0  0  0  0  0
   24.8420  -32.5950  -14.6770 C   0  0  0  0  0  0  0  0  0  0  0  0
   25.8320  -33.0370  -13.7810 C   0  0  0  0  0  3  0  0  0  0  0  0
   27.0190  -32.2990  -13.6310 C   0  0  0  0  0  3  0  0  0  0  0  0
   27.2220  -31.1250  -14.3780 C   0  0  0  0  0  0  0  0  0  0  0  0
   28.6790  -30.2290  -14.1740 Cl  0  0  0  0  0  0  0  0  0  0  0  0
   26.2440  -30.7000  -15.2950 C   0  0  0  0  0  3  0  0  0  0  0  0
   25.0580  -31.4320  -15.4400 C   0  0  0  0  0  3  0  0  0  0  0  0
   27.2510  -27.0860  -14.6310 C   0  0  0  0  0  2  0  0  0  0  0  0
   25.8680  -24.3320  -16.3280 N   0  0  0  0  0  0  0  0  0  0  0  0
   26.6230  -24.8260  -15.3540 C   0  0  0  0  0  0  0  0  0  0  0  0
   26.8030  -24.2850  -14.2600 O   0  0  0  0  0  0  0  0  0  0  0  0
   27.0010  -26.0690  -15.6390 N   0  0  0  0  0  0  0  0  0  0  0  0
   25.7430  -24.9030  -17.1490 H   0  0  0  0  0  0  0  0  0  0  0  0
   26.9380  -26.3860  -16.5960 H   0  0  0  0  0  0  0  0  0  0  0  0
   24.8240  -23.3200  -16.1740 C   0  0  0  0  0  3  0  0  0  0  0  0
   21.9940  -23.8840  -13.4880 C   0  0  0  0  0  3  0  0  0  0  0  0
   21.6150  -22.7490  -12.5210 C   0  0  0  0  0  2  0  0  0  0  0  0
   22.8890  -21.9440  -12.3730 C   0  0  0  0  0  3  0  0  0  0  0  0
   23.6310  -22.1240  -13.7010 C   0  0  0  0  0  2  0  0  0  0  0  0
   23.1040  -23.3540  -14.3100 N   0  0  0  0  0  0  0  0  0  0  0  0
   23.6510  -23.9830  -15.3850 C   0  0  0  0  0  0  0  0  0  0  0  0
   23.2710  -25.1050  -15.7400 O   0  0  0  0  0  0  0  0  0  0  0  0
   19.9760  -25.2480  -13.6500 N   0  0  0  0  0  0  0  0  0  0  0  0
   20.7430  -24.3370  -14.2590 C   0  0  0  0  0  0  0  0  0  0  0  0
   20.4590  -23.8300  -15.3470 O   0  0  0  0  0  0  0  0  0  0  0  0
   20.2740  -25.5900  -12.7480 H   0  0  0  0  0  0  0  0  0  0  0  0
   18.6620  -25.6780  -14.1080 C   0  0  0  0  0  2  0  0  0  0  0  0
   15.4770  -22.9750  -12.8730 C   0  0  0  0  0  0  0  0  0  0  0  0
   16.5860  -23.1990  -12.0320 C   0  0  0  0  0  3  0  0  0  0  0  0
   17.6150  -24.0670  -12.4300 C   0  0  0  0  0  3  0  0  0  0  0  0
   15.4110  -23.6340  -14.1190 C   0  0  0  0  0  3  0  0  0  0  0  0
   16.4420  -24.5050  -14.5200 C   0  0  0  0  0  3  0  0  0  0  0  0
   17.5520  -24.7270  -13.6780 C   0  0  0  0  0  0  0  0  0  0  0  0
   12.2940  -23.4490  -13.0940 C   0  0  0  0  0  1  0  0  0  0  0  0
   13.0470  -22.2790  -12.4940 C   0  0  0  0  0  0  0  0  0  0  0  0
   12.3120  -21.2710  -11.9000 N   0  0  0  0  0  0  0  0  0  0  0  0
   13.0650  -20.2800  -11.1390 C   0  0  0  0  0  2  0  0  0  0  0  0
   14.7790  -20.5980  -11.6280 S   0  0  0  0  0  0  0  0  0  0  0  0
   14.3740  -22.1240  -12.3960 C   0  0  0  0  0  0  0  0  0  0  0  0
   11.3030  -21.3100  -11.7910 H   0  0  0  0  0  0  0  0  0  0  0  0
   23.6820  -22.4680  -11.3180 O   0  0  0  0  0  0  0  0  0  0  0  0
   23.8900  -23.3740  -11.5230 H   0  0  0  0  0  0  0  0  0  0  0  0
   24.4200  -22.8290  -17.6100 C   0  0  1  0  0  0  0  0  0  0  0  0
   25.6110  -22.0490  -18.2130 C   0  0  0  0  0  1  0  0  0  0  0  0
   24.0600  -23.9780  -18.5870 C   0  0  0  0  0  1  0  0  0  0  0  0
   23.2240  -21.8570  -17.5500 C   0  0  0  0  0  1  0  0  0  0  0  0
  2  3  2  0
  3  7  1  0
  3  6  1  0
  4  2  1  0
  4  1  1  0
  5  9  1  0
  5  2  1  0
  8  4  1  0
 10 12  1  0
 10  5  1  0
 12 11  1  0
 13 17  1  0
 13 15  1  0
 14 13  2  0
 15 16  1  0
 15 12  1  0
 18 17  1  0
 18 19  1  0
 18 20  1  0
 19 33  2  0
 20 25  1  0
 21 20  2  0
 21 22  1  0
 22 23  2  0
 23 24  1  0
 25 23  1  0
 25 26  1  0
 26 27  1  0
 27 28  1  0
 28 29  1  0
 30 31  1  0
 30 28  2  0
 32 26  2  0
 32 30  1  0
 33 34  1  0
 33 32  1  0
 34 35  1  0
 35 36  2  0
 37 38  1  0
 37 36  1  0
 39 37  2  0
 40 39  1  0
 40 34  2  0
 41  1  1  0
 42 48  1  0
 42 43  1  0
 43 44  2  0
 45 43  1  0
 45 41  1  0
 46 42  1  0
 47 45  1  0
 48 54  1  0
 49 57  1  0
 49 50  1  0
 50 51  1  0
 51 74  1  0
 52 51  1  0
 53 52  1  0
 53 49  1  0
 54 53  1  0
 55 54  2  0
 56 59  1  0
 57 56  1  0
 58 57  2  0
 60 66  1  0
 60 56  1  0
 61 72  1  0
 61 62  1  0
 63 62  2  0
 64 61  2  0
 65 64  1  0
 65 66  2  0
 66 63  1  0
 67 68  1  0
 68 72  2  0
 68 69  1  0
 69 73  1  0
 69 70  1  0
 71 70  1  0
 72 71  1  0
 75 74  1  0
 76 79  1  1
 76 48  1  0
 77 76  1  0
 78 76  1  0
M  ISO  4  13 100  15 100  43 101  45 101
M  END
>  <TORSDO>  (172) 
F 17

>  <SCORE>  (172) 
-7.532

>  <name>  (172) 
171

>  <ligand_id>  (172) 
171

>  <original_smiles>  (172) 
[H]OC1([H])C([H])([H])N(C(=O)C([H])(N([H])C(=O)N([H])C([H])([H])C([H])([H])N([H])C(N([H])[H])=[N+]([H])C([H])([H])C([H])(N([H])C(=O)C([H])([H])C2([H])N=C(c3c([H])c([H])c(Cl)c([H])c3[H])c3c(sc(C([H])([H])[H])c3C([H])([H])[H])-n3c(C([H])([H])[H])nnc32)C([H])([H])[H])C(C([H])([H])[H])(C([H])([H])[H])C([H])([H])[H])C([H])(C(=O)N([H])C([H])([H])c2c([H])c([H])c(C3=C(C([H])([H])[H])N([H])C([H])([H])S3)c([H])c2[H])C1([H])[H]

>  <smiles>  (172) 
[H]OC1([H])C([H])([H])N(C(=O)C([H])(N([H])C(=O)N([H])C([H])([H])C([H])([H])N([H])C(N([H])[H])=[N+]([H])C([H])([H])C([H])(N([H])C(=O)C([H])([H])C2([H])N=C(c3c([H])c([H])c(Cl)c([H])c3[H])c3c(sc(C([H])([H])[H])c3C([H])([H])[H])-n3c(C([H])([H])[H])nnc32)C([H])([H])[H])C(C([H])([H])[H])(C([H])([H])[H])C([H])([H])[H])C([H])(C(=O)N([H])C([H])([H])c2c([H])c([H])c(C3=C(C([H])([H])[H])N([H])C([H])([H])S3)c([H])c2[H])C1([H])[H]

$$$$
172:0:0
     RDKit          3D

 81 88  0  0  1  0  0  0  0  0999 V2000
   26.4400  -29.0140  -17.2660 C   0  0  0  0  0  0  0  0  0  0  0  0
   25.3960  -28.1900  -17.6430 C   0  0  0  0  0  0  0  0  0  0  0  0
   27.4140  -27.0070  -16.8430 C   0  0  0  0  0  3  0  0  0  0  0  0
   27.5350  -28.3310  -16.7340 N   0  0  0  0  0  2  0  0  0  0  0  0
   25.9330  -26.5410  -17.6440 S   0  0  0  0  0  0  0  0  0  0  0  0
   23.2670  -29.3820  -17.5930 C   0  0  0  0  0  0  0  0  0  0  0  0
   24.1040  -28.4200  -18.0030 N   0  0  0  0  0  0  0  0  0  0  0  0
   23.6440  -30.4600  -17.1280 O   0  0  0  0  0  0  0  0  0  0  0  0
   23.6490  -27.6410  -18.4580 H   0  0  0  0  0  0  0  0  0  0  0  0
   21.7620  -29.1140  -17.7920 C   0  0  0  0  0  2  0  0  0  0  0  0
   20.5680  -31.0820  -16.8450 C   0  0  0  0  0  0  0  0  0  0  0  0
   20.2230  -30.5830  -15.7680 O   0  0  0  0  0  0  0  0  0  0  0  0
   21.0420  -30.3800  -17.8820 N   0  0  0  0  0  0  0  0  0  0  0  0
   21.2630  -30.9200  -18.7090 H   0  0  0  0  0  0  0  0  0  0  0  0
   20.5790  -32.5980  -17.0500 C   0  0  0  0  0  2  0  0  0  0  0  0
   21.1590  -33.3920  -15.8510 C   0  0  0  0  0  3  0  0  0  0  0  0
   22.5320  -32.9680  -15.5580 N   0  0  0  0  0  0  0  0  0  0  0  0
   21.1280  -34.8930  -16.0680 C   0  0  0  0  0  0  0  0  0  0  0  0
   20.8400  -35.5320  -17.2090 N   0  0  0  0  0  0  0  0  0  0  0  0
   21.0190  -36.8750  -16.9420 N   0  0  0  0  0  0  0  0  0  0  0  0
   21.4130  -36.9410  -15.6660 C   0  0  0  0  0  0  0  0  0  0  0  0
   21.7750  -38.2240  -14.9830 C   0  0  0  0  0  1  0  0  0  0  0  0
   21.4750  -35.7300  -15.0720 N   0  0  0  0  0  0  0  0  0  0  0  0
   21.8030  -35.3650  -13.7520 C   0  0  0  0  0  0  0  0  0  0  0  0
   21.3010  -36.2170  -12.3270 S   0  0  0  0  0  0  0  0  0  0  0  0
   22.0260  -35.0120  -11.3000 C   0  0  0  0  0  0  0  0  0  0  0  0
   21.9420  -35.1660   -9.8160 C   0  0  0  0  0  1  0  0  0  0  0  0
   22.6070  -33.9930  -12.0260 C   0  0  0  0  0  0  0  0  0  0  0  0
   23.2430  -32.7940  -11.3700 C   0  0  0  0  0  1  0  0  0  0  0  0
   22.5090  -34.2210  -13.4460 C   0  0  0  0  0  0  0  0  0  0  0  0
   23.1200  -33.3150  -14.4740 C   0  0  0  0  0  0  0  0  0  0  0  0
   24.4930  -32.8110  -14.2390 C   0  0  0  0  0  0  0  0  0  0  0  0
   25.5160  -33.7030  -13.8480 C   0  0  0  0  0  3  0  0  0  0  0  0
   26.8140  -33.2230  -13.5960 C   0  0  0  0  0  3  0  0  0  0  0  0
   27.0940  -31.8500  -13.7260 C   0  0  0  0  0  0  0  0  0  0  0  0
   28.6850  -31.2590  -13.4240 Cl  0  0  0  0  0  0  0  0  0  0  0  0
   26.0740  -30.9580  -14.1020 C   0  0  0  0  0  3  0  0  0  0  0  0
   24.7800  -31.4360  -14.3730 C   0  0  0  0  0  3  0  0  0  0  0  0
   26.4830  -30.3990  -17.3290 N   0  0  0  0  0  0  0  0  0  0  0  0
   25.5470  -30.8080  -17.3760 H   0  0  0  0  0  0  0  0  0  0  0  0
   27.0790  -30.8560  -16.6510 H   0  0  0  0  0  0  0  0  0  0  0  0
   29.8480  -26.4560  -16.3980 C   0  0  0  0  0  1  0  0  0  0  0  0
   28.3860  -25.9930  -16.3150 C   0  0  0  0  0  3  0  0  0  0  0  0
   26.2650  -24.2890  -15.4990 N   0  0  0  0  0  4  0  0  0  0  0  0
   27.1380  -24.6580  -14.5670 C   0  0  0  0  0  0  0  0  0  0  0  0
   27.1910  -24.1300  -13.4660 O   0  0  0  0  0  0  0  0  0  0  0  0
   28.0070  -25.6090  -14.9470 N   0  0  0  0  0  0  0  0  0  0  0  0
   26.4460  -24.7080  -16.3950 H   0  0  0  0  0  0  0  0  0  0  0  0
   28.6200  -25.9510  -14.2210 H   0  0  0  0  0  0  0  0  0  0  0  0
   24.9450  -23.6690  -15.4720 C   0  0  0  0  0  0  0  0  0  0  0  0
   21.9350  -23.9100  -12.8980 C   0  0  0  0  0  3  0  0  0  0  0  0
   21.4430  -22.7020  -12.0890 C   0  0  0  0  0  2  0  0  0  0  0  0
   22.6910  -21.8720  -11.8740 C   0  0  0  0  0  3  0  0  0  0  0  0
   23.5690  -22.1440  -13.1050 C   0  0  0  0  0  2  0  0  0  0  0  0
   23.1280  -23.4340  -13.6420 N   0  0  0  0  0  0  0  0  0  0  0  0
   23.7790  -24.1940  -14.5650 C   0  0  0  0  0  0  0  0  0  0  0  0
   23.4200  -25.3640  -14.7460 O   0  0  0  0  0  0  0  0  0  0  0  0
   20.0160  -25.3940  -13.2100 N   0  0  0  0  0  0  0  0  0  0  0  0
   20.7770  -24.4450  -13.7640 C   0  0  0  0  0  0  0  0  0  0  0  0
   20.5550  -23.9710  -14.8810 O   0  0  0  0  0  0  0  0  0  0  0  0
   20.2820  -25.7430  -12.2990 H   0  0  0  0  0  0  0  0  0  0  0  0
   18.7720  -25.9060  -13.7700 C   0  0  0  0  0  2  0  0  0  0  0  0
   15.3180  -23.4530  -12.7680 C   0  0  0  0  0  0  0  0  0  0  0  0
   16.3420  -23.6560  -11.8210 C   0  0  0  0  0  3  0  0  0  0  0  0
   17.4600  -24.4460  -12.1410 C   0  0  0  0  0  3  0  0  0  0  0  0
   15.4270  -24.0440  -14.0450 C   0  0  0  0  0  3  0  0  0  0  0  0
   16.5470  -24.8340  -14.3660 C   0  0  0  0  0  3  0  0  0  0  0  0
   17.5690  -25.0400  -13.4180 C   0  0  0  0  0  0  0  0  0  0  0  0
   12.2270  -23.9760  -13.5330 C   0  0  0  0  0  1  0  0  0  0  0  0
   12.8320  -22.8600  -12.7050 C   0  0  0  0  0  0  0  0  0  0  0  0
   11.9750  -21.9460  -12.1280 N   0  0  0  0  0  0  0  0  0  0  0  0
   12.5580  -21.0270  -11.1580 C   0  0  0  0  0  2  0  0  0  0  0  0
   14.3410  -21.2440  -11.4040 S   0  0  0  0  0  0  0  0  0  0  0  0
   14.1210  -22.6870  -12.3820 C   0  0  0  0  0  0  0  0  0  0  0  0
   10.9630  -22.0170  -12.1900 H   0  0  0  0  0  0  0  0  0  0  0  0
   23.3670  -22.3060  -10.7040 O   0  0  0  0  0  0  0  0  0  0  0  0
   23.6240  -23.2140  -10.8240 H   0  0  0  0  0  0  0  0  0  0  0  0
   24.6510  -22.8020  -16.7560 C   0  0  1  0  0  0  0  0  0  0  0  0
   25.9450  -22.1020  -17.2390 C   0  0  0  0  0  1  0  0  0  0  0  0
   24.1120  -23.6640  -17.9270 C   0  0  0  0  0  1  0  0  0  0  0  0
   23.6090  -21.6950  -16.5180 C   0  0  0  0  0  1  0  0  0  0  0  0
  1  4  1  0
  2  1  2  0
  3  4  1  0
  3 43  1  0
  5  2  1  0
  5  3  1  0
  6  8  2  0
  7  2  1  0
  7  6  1  0
  9  7  1  0
 10  6  1  0
 11 12  2  0
 13 10  1  0
 13 11  1  0
 14 13  1  0
 15 11  1  0
 16 15  1  0
 16 17  1  0
 17 31  2  0
 18 16  1  0
 18 23  1  0
 19 20  1  0
 19 18  2  0
 20 21  2  0
 21 23  1  0
 21 22  1  0
 23 24  1  0
 24 30  2  0
 24 25  1  0
 25 26  1  0
 26 27  1  0
 28 29  1  0
 28 26  2  0
 30 28  1  0
 31 32  1  0
 31 30  1  0
 32 33  1  0
 33 34  2  0
 35 34  1  0
 35 36  1  0
 37 35  2  0
 38 32  2  0
 38 37  1  0
 39  1  1  0
 39 41  1  0
 40 39  1  0
 43 42  1  0
 43 47  1  0
 44 50  2  0
 44 45  1  0
 45 46  2  0
 47 45  1  0
 47 49  1  0
 48 44  1  0
 50 56  1  0
 51 59  1  0
 51 52  1  0
 52 53  1  0
 53 76  1  0
 54 53  1  0
 55 54  1  0
 55 51  1  0
 56 55  1  0
 57 56  2  0
 58 61  1  0
 59 58  1  0
 60 59  2  0
 62 68  1  0
 62 58  1  0
 63 74  1  0
 63 64  1  0
 65 64  2  0
 66 63  2  0
 67 66  1  0
 67 68  2  0
 68 65  1  0
 69 70  1  0
 70 74  2  0
 70 71  1  0
 71 72  1  0
 73 72  1  0
 74 73  1  0
 75 71  1  0
 77 76  1  0
 78 81  1  1
 78 50  1  0
 79 78  1  0
 80 78  1  0
M  ISO  4  11 100  13 100  45 101  47 101
M  END
>  <TORSDO>  (173) 
F 17

>  <SCORE>  (173) 
-12.336

>  <name>  (173) 
172

>  <ligand_id>  (173) 
172

>  <original_smiles>  (173) 
[H]OC1([H])C([H])([H])N(C(=O)C([H])(N([H])C(=O)N([H])C([H])(c2nc(N([H])[H])c(N([H])C(=O)C([H])([H])N([H])C(=O)C([H])([H])C3([H])N=C(c4c([H])c([H])c(Cl)c([H])c4[H])c4c(sc(C([H])([H])[H])c4C([H])([H])[H])-n4c(C([H])([H])[H])nnc43)s2)C([H])([H])[H])C(C([H])([H])[H])(C([H])([H])[H])C([H])([H])[H])C([H])(C(=O)N([H])C([H])([H])c2c([H])c([H])c(C3=C(C([H])([H])[H])N([H])C([H])([H])S3)c([H])c2[H])C1([H])[H]

>  <smiles>  (173) 
[H]OC1([H])C([H])([H])N(C(=O)C([H])(N([H])C(=O)N([H])C([H])(c2nc(N([H])[H])c(N([H])C(=O)C([H])([H])N([H])C(=O)C([H])([H])C3([H])N=C(c4c([H])c([H])c(Cl)c([H])c4[H])c4c(sc(C([H])([H])[H])c4C([H])([H])[H])-n4c(C([H])([H])[H])nnc43)s2)C([H])([H])[H])C(C([H])([H])[H])(C([H])([H])[H])C([H])([H])[H])C([H])(C(=O)N([H])C([H])([H])c2c([H])c([H])c(C3=C(C([H])([H])[H])N([H])C([H])([H])S3)c([H])c2[H])C1([H])[H]

$$$$
173:0:0
     RDKit          3D

 78 84  0  0  1  0  0  0  0  0999 V2000
   27.4640  -26.8380  -15.9450 N   0  0  0  0  0  4  0  0  0  0  0  0
   27.4110  -26.0300  -16.5440 H   0  0  0  0  0  0  0  0  0  0  0  0
   28.4060  -27.1880  -16.0450 H   0  0  0  0  0  0  0  0  0  0  0  0
   25.9190  -24.7580  -15.3410 N   0  0  0  0  0  0  0  0  0  0  0  0
   26.8790  -25.0960  -14.4690 C   0  0  0  0  0  0  0  0  0  0  0  0
   27.2580  -24.3400  -13.5710 O   0  0  0  0  0  0  0  0  0  0  0  0
   27.3130  -26.3650  -14.5230 N   0  0  0  0  0  0  0  0  0  0  0  0
   25.5190  -25.5050  -15.8890 H   0  0  0  0  0  0  0  0  0  0  0  0
   28.0480  -26.6480  -13.8930 H   0  0  0  0  0  0  0  0  0  0  0  0
   24.9890  -23.6270  -15.2030 C   0  0  0  0  0  3  0  0  0  0  0  0
   21.8800  -23.9370  -12.8030 C   0  0  0  0  0  3  0  0  0  0  0  0
   21.4290  -22.7240  -11.9730 C   0  0  0  0  0  2  0  0  0  0  0  0
   22.6930  -21.9160  -11.7710 C   0  0  0  0  0  3  0  0  0  0  0  0
   23.5530  -22.2080  -13.0020 C   0  0  0  0  0  2  0  0  0  0  0  0
   23.0740  -23.4800  -13.5470 N   0  0  0  0  0  0  0  0  0  0  0  0
   23.7170  -24.1960  -14.5030 C   0  0  0  0  0  0  0  0  0  0  0  0
   23.3530  -25.3360  -14.8080 O   0  0  0  0  0  0  0  0  0  0  0  0
   19.9220  -25.3610  -13.1080 N   0  0  0  0  0  0  0  0  0  0  0  0
   20.7070  -24.4310  -13.6660 C   0  0  0  0  0  0  0  0  0  0  0  0
   20.4950  -23.9420  -14.7780 O   0  0  0  0  0  0  0  0  0  0  0  0
   20.1880  -25.7270  -12.2020 H   0  0  0  0  0  0  0  0  0  0  0  0
   18.6540  -25.8220  -13.6560 C   0  0  0  0  0  2  0  0  0  0  0  0
   15.3030  -23.2430  -12.6320 C   0  0  0  0  0  0  0  0  0  0  0  0
   16.3440  -23.4510  -11.7060 C   0  0  0  0  0  3  0  0  0  0  0  0
   17.4310  -24.2800  -12.0330 C   0  0  0  0  0  3  0  0  0  0  0  0
   15.3620  -23.8670  -13.8960 C   0  0  0  0  0  3  0  0  0  0  0  0
   16.4500  -24.6960  -14.2260 C   0  0  0  0  0  3  0  0  0  0  0  0
   17.4890  -24.9100  -13.2960 C   0  0  0  0  0  0  0  0  0  0  0  0
   12.1730  -23.7380  -13.2530 C   0  0  0  0  0  1  0  0  0  0  0  0
   12.8350  -22.5970  -12.5040 C   0  0  0  0  0  0  0  0  0  0  0  0
   12.0160  -21.6410  -11.9370 N   0  0  0  0  0  0  0  0  0  0  0  0
   12.6550  -20.6870  -11.0370 C   0  0  0  0  0  2  0  0  0  0  0  0
   14.4220  -20.9530  -11.3370 S   0  0  0  0  0  0  0  0  0  0  0  0
   14.1370  -22.4350  -12.2380 C   0  0  0  0  0  0  0  0  0  0  0  0
   11.0010  -21.6970  -11.9540 H   0  0  0  0  0  0  0  0  0  0  0  0
   23.3770  -22.3700  -10.6120 O   0  0  0  0  0  0  0  0  0  0  0  0
   23.5880  -23.2900  -10.7290 H   0  0  0  0  0  0  0  0  0  0  0  0
   24.6990  -23.0360  -16.6350 C   0  0  1  0  0  0  0  0  0  0  0  0
   26.0100  -22.3980  -17.1550 C   0  0  0  0  0  1  0  0  0  0  0  0
   24.2210  -24.1090  -17.6440 C   0  0  0  0  0  1  0  0  0  0  0  0
   23.6280  -21.9260  -16.5890 C   0  0  0  0  0  1  0  0  0  0  0  0
   26.9700  -28.9860  -17.0290 C   0  0  0  0  0  3  0  0  0  0  0  0
   26.4870  -27.8850  -16.4020 C   0  0  0  0  0  0  0  0  0  0  0  0
   26.1840  -30.1610  -17.5680 C   0  0  0  0  0  1  0  0  0  0  0  0
   25.1660  -27.5530  -16.1060 O   0  0  0  0  0  0  0  0  0  0  0  0
   24.1110  -27.8100  -17.0740 C   0  0  0  0  0  2  0  0  0  0  0  0
   23.0110  -28.8080  -16.6020 C   0  0  0  0  0  0  0  0  0  0  0  0
   22.2610  -29.3830  -17.5670 N   0  0  0  0  0  0  0  0  0  0  0  0
   22.8540  -29.0470  -15.4040 O   0  0  0  0  0  0  0  0  0  0  0  0
   22.3790  -29.0410  -18.5110 H   0  0  0  0  0  0  0  0  0  0  0  0
   21.0320  -31.4960  -17.0110 C   0  0  0  0  0  0  0  0  0  0  0  0
   20.2320  -30.9750  -16.2340 O   0  0  0  0  0  0  0  0  0  0  0  0
   22.0320  -30.8120  -17.6150 N   0  0  0  0  0  0  0  0  0  0  0  0
   22.7110  -31.2730  -18.2070 H   0  0  0  0  0  0  0  0  0  0  0  0
   21.0340  -33.0330  -17.1940 C   0  0  0  0  0  2  0  0  0  0  0  0
   21.4900  -33.7490  -15.8930 C   0  0  0  0  0  3  0  0  0  0  0  0
   22.8410  -33.3040  -15.5640 N   0  0  0  0  0  0  0  0  0  0  0  0
   21.4620  -35.2680  -15.9260 C   0  0  0  0  0  0  0  0  0  0  0  0
   21.2580  -36.0530  -16.9900 N   0  0  0  0  0  0  0  0  0  0  0  0
   21.4340  -37.3510  -16.5400 N   0  0  0  0  0  0  0  0  0  0  0  0
   21.7400  -37.2470  -15.2380 C   0  0  0  0  0  0  0  0  0  0  0  0
   22.0760  -38.4200  -14.3730 C   0  0  0  0  0  1  0  0  0  0  0  0
   21.7440  -35.9690  -14.8080 N   0  0  0  0  0  0  0  0  0  0  0  0
   21.9820  -35.4410  -13.5180 C   0  0  0  0  0  0  0  0  0  0  0  0
   21.3960  -36.1140  -12.0300 S   0  0  0  0  0  0  0  0  0  0  0  0
   22.0390  -34.7750  -11.1200 C   0  0  0  0  0  0  0  0  0  0  0  0
   21.8570  -34.7280   -9.6340 C   0  0  0  0  0  1  0  0  0  0  0  0
   22.6550  -33.8470  -11.9300 C   0  0  0  0  0  0  0  0  0  0  0  0
   23.2230  -32.5630  -11.3930 C   0  0  0  0  0  1  0  0  0  0  0  0
   22.6620  -34.2620  -13.3120 C   0  0  0  0  0  0  0  0  0  0  0  0
   23.3430  -33.4960  -14.4020 C   0  0  0  0  0  0  0  0  0  0  0  0
   24.6900  -32.9480  -14.1480 C   0  0  0  0  0  0  0  0  0  0  0  0
   25.6870  -33.7360  -13.5340 C   0  0  0  0  0  3  0  0  0  0  0  0
   26.9560  -33.1850  -13.2680 C   0  0  0  0  0  3  0  0  0  0  0  0
   27.2280  -31.8460  -13.5980 C   0  0  0  0  0  0  0  0  0  0  0  0
   28.7760  -31.1610  -13.2770 Cl  0  0  0  0  0  0  0  0  0  0  0  0
   26.2330  -31.0600  -14.1970 C   0  0  0  0  0  3  0  0  0  0  0  0
   24.9780  -31.6150  -14.4940 C   0  0  0  0  0  3  0  0  0  0  0  0
  1  7  1  0
  2  1  1  0
  3  1  1  0
  4 10  1  0
  4  5  1  0
  5  6  2  0
  7  5  1  0
  7  9  1  0
  8  4  1  0
 10 16  1  0
 11 19  1  0
 11 12  1  0
 12 13  1  0
 13 36  1  0
 14 13  1  0
 15 14  1  0
 15 11  1  0
 16 15  1  0
 17 16  2  0
 18 21  1  0
 19 18  1  0
 20 19  2  0
 22 28  1  0
 22 18  1  0
 23 34  1  0
 23 24  1  0
 25 24  2  0
 26 23  2  0
 27 26  1  0
 27 28  2  0
 28 25  1  0
 29 30  1  0
 30 34  2  0
 30 31  1  0
 31 32  1  0
 33 32  1  0
 34 33  1  0
 35 31  1  0
 37 36  1  0
 38 41  1  1
 38 10  1  0
 39 38  1  0
 40 38  1  0
 42 43  2  0
 43 45  1  0
 43  1  1  0
 44 42  1  0
 46 47  1  0
 46 45  1  0
 47 49  2  0
 48 47  1  0
 50 48  1  0
 51 52  2  0
 53 48  1  0
 53 51  1  0
 54 53  1  0
 55 51  1  0
 56 55  1  0
 56 57  1  0
 57 71  2  0
 58 56  1  0
 58 63  1  0
 59 60  1  0
 59 58  2  0
 60 61  2  0
 61 63  1  0
 61 62  1  0
 63 64  1  0
 64 70  2  0
 64 65  1  0
 65 66  1  0
 66 67  1  0
 68 69  1  0
 68 66  2  0
 70 68  1  0
 71 72  1  0
 71 70  1  0
 72 73  1  0
 73 74  2  0
 75 76  1  0
 75 74  1  0
 77 75  2  0
 78 77  1  0
 78 72  2  0
M  ISO  4   5 101   7 101  51 100  53 100
M  END
>  <TORSDO>  (174) 
F 17

>  <SCORE>  (174) 
-12.443

>  <name>  (174) 
173

>  <ligand_id>  (174) 
173

>  <original_smiles>  (174) 
[H]OC1([H])C([H])([H])N(C(=O)C([H])(N([H])C(=O)N([H])[N+]([H])([H])C(OC([H])([H])C(=O)N([H])N([H])C(=O)C([H])([H])C2([H])N=C(c3c([H])c([H])c(Cl)c([H])c3[H])c3c(sc(C([H])([H])[H])c3C([H])([H])[H])-n3c(C([H])([H])[H])nnc32)=C([H])C([H])([H])[H])C(C([H])([H])[H])(C([H])([H])[H])C([H])([H])[H])C([H])(C(=O)N([H])C([H])([H])c2c([H])c([H])c(C3=C(C([H])([H])[H])N([H])C([H])([H])S3)c([H])c2[H])C1([H])[H]

>  <smiles>  (174) 
[H]OC1([H])C([H])([H])N(C(=O)C([H])(N([H])C(=O)N([H])[N+]([H])([H])C(OC([H])([H])C(=O)N([H])N([H])C(=O)C([H])([H])C2([H])N=C(c3c([H])c([H])c(Cl)c([H])c3[H])c3c(sc(C([H])([H])[H])c3C([H])([H])[H])-n3c(C([H])([H])[H])nnc32)=C([H])C([H])([H])[H])C(C([H])([H])[H])(C([H])([H])[H])C([H])([H])[H])C([H])(C(=O)N([H])C([H])([H])c2c([H])c([H])c(C3=C(C([H])([H])[H])N([H])C([H])([H])S3)c([H])c2[H])C1([H])[H]

$$$$
174:0:0
     RDKit          3D

 77 83  0  0  1  0  0  0  0  0999 V2000
   27.6770  -26.3660  -16.3130 C   0  0  0  0  0  2  0  0  0  0  0  0
   25.7710  -24.5570  -15.3700 N   0  0  0  0  0  0  0  0  0  0  0  0
   26.8230  -24.7760  -14.5860 C   0  0  0  0  0  0  0  0  0  0  0  0
   27.1000  -24.0840  -13.6060 O   0  0  0  0  0  0  0  0  0  0  0  0
   27.5070  -25.8710  -14.9360 N   0  0  0  0  0  0  0  0  0  0  0  0
   25.5550  -25.2670  -16.0480 H   0  0  0  0  0  0  0  0  0  0  0  0
   28.2000  -26.1910  -14.2730 H   0  0  0  0  0  0  0  0  0  0  0  0
   24.7890  -23.4850  -15.2960 C   0  0  0  0  0  3  0  0  0  0  0  0
   21.6730  -23.7190  -12.9160 C   0  0  0  0  0  3  0  0  0  0  0  0
   21.1780  -22.4610  -12.1870 C   0  0  0  0  0  2  0  0  0  0  0  0
   22.4190  -21.6110  -12.0160 C   0  0  0  0  0  3  0  0  0  0  0  0
   23.3060  -21.9660  -13.2090 C   0  0  0  0  0  2  0  0  0  0  0  0
   22.8650  -23.2870  -13.6720 N   0  0  0  0  0  0  0  0  0  0  0  0
   23.5380  -24.0550  -14.5660 C   0  0  0  0  0  0  0  0  0  0  0  0
   23.2130  -25.2260  -14.7940 O   0  0  0  0  0  0  0  0  0  0  0  0
   19.7710  -25.2260  -13.1470 N   0  0  0  0  0  0  0  0  0  0  0  0
   20.5270  -24.3060  -13.7560 C   0  0  0  0  0  0  0  0  0  0  0  0
   20.3000  -23.8890  -14.8940 O   0  0  0  0  0  0  0  0  0  0  0  0
   20.0380  -25.5230  -12.2180 H   0  0  0  0  0  0  0  0  0  0  0  0
   18.5260  -25.7690  -13.6740 C   0  0  0  0  0  2  0  0  0  0  0  0
   15.0590  -23.3130  -12.7250 C   0  0  0  0  0  0  0  0  0  0  0  0
   16.0880  -23.4830  -11.7760 C   0  0  0  0  0  3  0  0  0  0  0  0
   17.2100  -24.2720  -12.0800 C   0  0  0  0  0  3  0  0  0  0  0  0
   15.1680  -23.9370  -13.9850 C   0  0  0  0  0  3  0  0  0  0  0  0
   16.2930  -24.7270  -14.2900 C   0  0  0  0  0  3  0  0  0  0  0  0
   17.3190  -24.9010  -13.3390 C   0  0  0  0  0  0  0  0  0  0  0  0
   11.9720  -23.8780  -13.4760 C   0  0  0  0  0  1  0  0  0  0  0  0
   12.5680  -22.7380  -12.6730 C   0  0  0  0  0  0  0  0  0  0  0  0
   11.7040  -21.8180  -12.1170 N   0  0  0  0  0  0  0  0  0  0  0  0
   12.2800  -20.8730  -11.1670 C   0  0  0  0  0  2  0  0  0  0  0  0
   14.0650  -21.0820  -11.4090 S   0  0  0  0  0  0  0  0  0  0  0  0
   13.8560  -22.5480  -12.3550 C   0  0  0  0  0  0  0  0  0  0  0  0
   10.6930  -21.8960  -12.1790 H   0  0  0  0  0  0  0  0  0  0  0  0
   23.0950  -21.9620  -10.8200 O   0  0  0  0  0  0  0  0  0  0  0  0
   23.3290  -22.8850  -10.8650 H   0  0  0  0  0  0  0  0  0  0  0  0
   24.4970  -23.0050  -16.7650 C   0  0  1  0  0  0  0  0  0  0  0  0
   25.7760  -22.3560  -17.3430 C   0  0  0  0  0  1  0  0  0  0  0  0
   24.0720  -24.1480  -17.7210 C   0  0  0  0  0  1  0  0  0  0  0  0
   23.3910  -21.9300  -16.7990 C   0  0  0  0  0  1  0  0  0  0  0  0
   27.8330  -27.8680  -16.3840 C   0  0  0  0  0  0  0  0  0  0  0  0
   29.2090  -28.4380  -16.1900 C   0  0  0  0  0  1  0  0  0  0  0  0
   26.8760  -28.7040  -16.6130 N   0  0  0  0  0  0  0  0  0  0  0  0
   25.5880  -28.3220  -16.8580 N   0  0  0  0  0  0  0  0  0  0  0  0
   25.4250  -27.3810  -17.2170 H   0  0  0  0  0  0  0  0  0  0  0  0
   24.7740  -29.3950  -17.4470 C   0  0  0  0  0  2  0  0  0  0  0  0
   23.2600  -29.1380  -17.4550 C   0  0  0  0  0  0  0  0  0  0  0  0
   22.4790  -30.1840  -17.1520 N   0  0  0  0  0  0  0  0  0  0  0  0
   22.8120  -28.0400  -17.7950 O   0  0  0  0  0  0  0  0  0  0  0  0
   22.8220  -31.0790  -16.8150 H   0  0  0  0  0  0  0  0  0  0  0  0
   20.3760  -31.0620  -16.7940 C   0  0  0  0  0  0  0  0  0  0  0  0
   19.8350  -30.6520  -15.7640 O   0  0  0  0  0  0  0  0  0  0  0  0
   21.1250  -30.2640  -17.5620 N   0  0  0  0  0  0  0  0  0  0  0  0
   21.1690  -30.5170  -18.5420 H   0  0  0  0  0  0  0  0  0  0  0  0
   20.4020  -32.5600  -17.1200 C   0  0  0  0  0  2  0  0  0  0  0  0
   20.9550  -33.3990  -15.9310 C   0  0  0  0  0  3  0  0  0  0  0  0
   22.3000  -32.9350  -15.5750 N   0  0  0  0  0  0  0  0  0  0  0  0
   20.9800  -34.8980  -16.1820 C   0  0  0  0  0  0  0  0  0  0  0  0
   20.7550  -35.5180  -17.3460 N   0  0  0  0  0  0  0  0  0  0  0  0
   20.9730  -36.8600  -17.1030 N   0  0  0  0  0  0  0  0  0  0  0  0
   21.3290  -36.9450  -15.8180 C   0  0  0  0  0  0  0  0  0  0  0  0
   21.7170  -38.2310  -15.1540 C   0  0  0  0  0  1  0  0  0  0  0  0
   21.3260  -35.7460  -15.1920 N   0  0  0  0  0  0  0  0  0  0  0  0
   21.5940  -35.4050  -13.8520 C   0  0  0  0  0  0  0  0  0  0  0  0
   21.0860  -36.3140  -12.4650 S   0  0  0  0  0  0  0  0  0  0  0  0
   21.7250  -35.1100  -11.3840 C   0  0  0  0  0  0  0  0  0  0  0  0
   21.5980  -35.3080   -9.9080 C   0  0  0  0  0  1  0  0  0  0  0  0
   22.2880  -34.0480  -12.0630 C   0  0  0  0  0  0  0  0  0  0  0  0
   22.8520  -32.8430  -11.3520 C   0  0  0  0  0  1  0  0  0  0  0  0
   22.2430  -34.2420  -13.4920 C   0  0  0  0  0  0  0  0  0  0  0  0
   22.8550  -33.2880  -14.4730 C   0  0  0  0  0  0  0  0  0  0  0  0
   24.1950  -32.7380  -14.1730 C   0  0  0  0  0  0  0  0  0  0  0  0
   25.2130  -33.5900  -13.6920 C   0  0  0  0  0  3  0  0  0  0  0  0
   26.4830  -33.0640  -13.3830 C   0  0  0  0  0  3  0  0  0  0  0  0
   26.7380  -31.6910  -13.5570 C   0  0  0  0  0  0  0  0  0  0  0  0
   28.2920  -31.0420  -13.1890 Cl  0  0  0  0  0  0  0  0  0  0  0  0
   25.7250  -30.8440  -14.0310 C   0  0  0  0  0  3  0  0  0  0  0  0
   24.4550  -31.3600  -14.3380 C   0  0  0  0  0  3  0  0  0  0  0  0
  1  5  1  0
  2  8  1  0
  2  3  1  0
  3  4  2  0
  5  3  1  0
  5  7  1  0
  6  2  1  0
  8 14  1  0
  9 17  1  0
  9 10  1  0
 10 11  1  0
 11 34  1  0
 12 11  1  0
 13 12  1  0
 13  9  1  0
 14 13  1  0
 15 14  2  0
 16 19  1  0
 17 16  1  0
 18 17  2  0
 20 26  1  0
 20 16  1  0
 21 32  1  0
 21 22  1  0
 23 22  2  0
 24 21  2  0
 25 24  1  0
 25 26  2  0
 26 23  1  0
 27 28  1  0
 28 32  2  0
 28 29  1  0
 29 30  1  0
 31 30  1  0
 32 31  1  0
 33 29  1  0
 35 34  1  0
 36  8  1  0
 36 37  1  6
 38 36  1  0
 39 36  1  0
 40  1  1  0
 40 41  1  0
 42 40  2  0
 43 42  1  0
 44 43  1  0
 45 43  1  0
 46 45  1  0
 46 47  1  0
 47 49  1  0
 48 46  2  0
 50 51  2  0
 52 47  1  0
 52 50  1  0
 53 52  1  0
 54 50  1  0
 55 54  1  0
 55 56  1  0
 56 70  2  0
 57 55  1  0
 57 62  1  0
 58 59  1  0
 58 57  2  0
 59 60  2  0
 60 62  1  0
 60 61  1  0
 62 63  1  0
 63 69  2  0
 63 64  1  0
 64 65  1  0
 65 66  1  0
 67 65  2  0
 67 68  1  0
 69 67  1  0
 70 71  1  0
 70 69  1  0
 71 72  1  0
 72 73  2  0
 74 73  1  0
 74 75  1  0
 76 74  2  0
 77 71  2  0
 77 76  1  0
M  ISO  4   3 101   5 101  50 100  52 100
M  END
>  <TORSDO>  (175) 
F 17

>  <SCORE>  (175) 
-11.335

>  <name>  (175) 
174

>  <ligand_id>  (175) 
174

>  <original_smiles>  (175) 
[H]OC1([H])C([H])([H])N(C(=O)C([H])(N([H])C(=O)N([H])C([H])([H])C(=NN([H])C([H])([H])C(=O)N([H])N([H])C(=O)C([H])([H])C2([H])N=C(c3c([H])c([H])c(Cl)c([H])c3[H])c3c(sc(C([H])([H])[H])c3C([H])([H])[H])-n3c(C([H])([H])[H])nnc32)C([H])([H])[H])C(C([H])([H])[H])(C([H])([H])[H])C([H])([H])[H])C([H])(C(=O)N([H])C([H])([H])c2c([H])c([H])c(C3=C(C([H])([H])[H])N([H])C([H])([H])S3)c([H])c2[H])C1([H])[H]

>  <smiles>  (175) 
[H]OC1([H])C([H])([H])N(C(=O)C([H])(N([H])C(=O)N([H])C([H])([H])C(=NN([H])C([H])([H])C(=O)N([H])N([H])C(=O)C([H])([H])C2([H])N=C(c3c([H])c([H])c(Cl)c([H])c3[H])c3c(sc(C([H])([H])[H])c3C([H])([H])[H])-n3c(C([H])([H])[H])nnc32)C([H])([H])[H])C(C([H])([H])[H])(C([H])([H])[H])C([H])([H])[H])C([H])(C(=O)N([H])C([H])([H])c2c([H])c([H])c(C3=C(C([H])([H])[H])N([H])C([H])([H])S3)c([H])c2[H])C1([H])[H]

$$$$
175:0:0
     RDKit          3D

 73 79  0  0  1  0  0  0  0  0999 V2000
   25.9130  -24.5180  -15.3990 N   0  0  0  0  0  0  0  0  0  0  0  0
   27.0320  -24.7090  -14.7020 C   0  0  0  0  0  0  0  0  0  0  0  0
   27.3610  -24.0120  -13.7410 O   0  0  0  0  0  0  0  0  0  0  0  0
   27.8680  -25.5970  -15.2580 N   0  0  0  0  0  4  0  0  0  0  0  0
   25.7410  -25.1490  -16.1670 H   0  0  0  0  0  0  0  0  0  0  0  0
   28.8140  -25.5640  -14.9040 H   0  0  0  0  0  0  0  0  0  0  0  0
   28.6020  -27.1280  -16.8630 C   0  0  0  0  0  1  0  0  0  0  0  0
   27.5890  -26.6970  -16.0890 C   0  0  0  0  0  0  0  0  0  0  0  0
   25.5260  -27.6510  -17.1460 C   0  0  0  0  0  3  0  0  0  0  0  0
   26.2970  -27.3900  -16.0690 C   0  0  0  0  0  3  0  0  0  0  0  0
   24.3560  -28.5130  -17.0720 C   0  0  0  0  0  3  0  0  0  0  0  0
   23.4640  -28.7180  -18.0710 C   0  0  0  0  0  0  0  0  0  0  0  0
   23.5290  -27.9330  -19.3670 C   0  0  0  0  0  1  0  0  0  0  0  0
   22.4600  -29.7640  -17.9280 C   0  0  0  0  0  3  0  0  0  0  0  0
   21.4770  -29.7710  -17.0060 C   0  0  0  0  0  3  0  0  0  0  0  0
   20.6000  -30.9340  -16.7270 C   0  0  0  0  0  0  0  0  0  0  0  0
   19.7000  -30.7940  -15.9030 O   0  0  0  0  0  0  0  0  0  0  0  0
   20.9510  -32.3650  -17.1890 C   0  0  0  0  0  2  0  0  0  0  0  0
   21.3930  -33.2350  -15.9800 C   0  0  0  0  0  3  0  0  0  0  0  0
   22.7600  -32.8680  -15.6190 N   0  0  0  0  0  0  0  0  0  0  0  0
   21.3090  -34.7380  -16.1820 C   0  0  0  0  0  0  0  0  0  0  0  0
   21.0400  -35.3820  -17.3230 N   0  0  0  0  0  0  0  0  0  0  0  0
   21.1720  -36.7270  -17.0340 N   0  0  0  0  0  0  0  0  0  0  0  0
   21.5190  -36.7920  -15.7440 C   0  0  0  0  0  0  0  0  0  0  0  0
   21.8270  -38.0770  -15.0360 C   0  0  0  0  0  1  0  0  0  0  0  0
   21.5900  -35.5760  -15.1610 N   0  0  0  0  0  0  0  0  0  0  0  0
   21.8760  -35.2140  -13.8280 C   0  0  0  0  0  0  0  0  0  0  0  0
   21.3060  -36.0430  -12.4150 S   0  0  0  0  0  0  0  0  0  0  0  0
   22.0230  -34.8480  -11.3700 C   0  0  0  0  0  0  0  0  0  0  0  0
   21.8820  -34.9880   -9.8870 C   0  0  0  0  0  1  0  0  0  0  0  0
   22.6530  -33.8490  -12.0790 C   0  0  0  0  0  0  0  0  0  0  0  0
   23.2910  -32.6580  -11.4110 C   0  0  0  0  0  1  0  0  0  0  0  0
   22.6030  -34.0890  -13.4990 C   0  0  0  0  0  0  0  0  0  0  0  0
   23.2820  -33.2150  -14.5060 C   0  0  0  0  0  0  0  0  0  0  0  0
   24.6530  -32.7400  -14.2280 C   0  0  0  0  0  0  0  0  0  0  0  0
   25.5870  -33.5960  -13.6060 C   0  0  0  0  0  3  0  0  0  0  0  0
   26.8850  -33.1330  -13.3200 C   0  0  0  0  0  3  0  0  0  0  0  0
   27.2520  -31.8160  -13.6550 C   0  0  0  0  0  0  0  0  0  0  0  0
   28.8380  -31.2430  -13.3030 Cl  0  0  0  0  0  0  0  0  0  0  0  0
   26.3230  -30.9630  -14.2730 C   0  0  0  0  0  3  0  0  0  0  0  0
   25.0250  -31.4230  -14.5630 C   0  0  0  0  0  3  0  0  0  0  0  0
   24.9210  -23.4590  -15.2200 C   0  0  0  0  0  3  0  0  0  0  0  0
   21.8570  -23.7960  -12.7850 C   0  0  0  0  0  3  0  0  0  0  0  0
   21.3330  -22.5580  -12.0390 C   0  0  0  0  0  2  0  0  0  0  0  0
   22.5510  -21.6720  -11.8810 C   0  0  0  0  0  3  0  0  0  0  0  0
   23.4290  -21.9920  -13.0910 C   0  0  0  0  0  2  0  0  0  0  0  0
   23.0220  -23.3230  -13.5590 N   0  0  0  0  0  0  0  0  0  0  0  0
   23.7030  -24.0680  -14.4680 C   0  0  0  0  0  0  0  0  0  0  0  0
   23.4070  -25.2470  -14.6930 O   0  0  0  0  0  0  0  0  0  0  0  0
   19.9510  -25.3050  -12.9700 N   0  0  0  0  0  0  0  0  0  0  0  0
   20.7130  -24.4120  -13.6080 C   0  0  0  0  0  0  0  0  0  0  0  0
   20.4960  -24.0420  -14.7640 O   0  0  0  0  0  0  0  0  0  0  0  0
   20.2120  -25.5640  -12.0270 H   0  0  0  0  0  0  0  0  0  0  0  0
   18.7060  -25.8640  -13.4810 C   0  0  0  0  0  2  0  0  0  0  0  0
   15.2430  -23.3560  -12.6680 C   0  0  0  0  0  0  0  0  0  0  0  0
   16.2370  -23.5310  -11.6840 C   0  0  0  0  0  3  0  0  0  0  0  0
   17.3580  -24.3370  -11.9430 C   0  0  0  0  0  3  0  0  0  0  0  0
   15.3840  -23.9940  -13.9190 C   0  0  0  0  0  3  0  0  0  0  0  0
   16.5090  -24.8020  -14.1780 C   0  0  0  0  0  3  0  0  0  0  0  0
   17.5010  -24.9780  -13.1940 C   0  0  0  0  0  0  0  0  0  0  0  0
   12.1960  -23.8080  -13.6300 C   0  0  0  0  0  1  0  0  0  0  0  0
   12.7690  -22.7150  -12.7490 C   0  0  0  0  0  0  0  0  0  0  0  0
   11.8950  -21.7920  -12.2130 N   0  0  0  0  0  0  0  0  0  0  0  0
   12.4340  -20.8990  -11.1940 C   0  0  0  0  0  2  0  0  0  0  0  0
   14.2250  -21.1490  -11.3320 S   0  0  0  0  0  0  0  0  0  0  0  0
   14.0380  -22.5730  -12.3440 C   0  0  0  0  0  0  0  0  0  0  0  0
   10.8880  -21.8420  -12.3400 H   0  0  0  0  0  0  0  0  0  0  0  0
   23.2550  -22.0090  -10.6960 O   0  0  0  0  0  0  0  0  0  0  0  0
   23.5210  -22.9210  -10.7530 H   0  0  0  0  0  0  0  0  0  0  0  0
   24.5730  -22.8900  -16.6450 C   0  0  1  0  0  0  0  0  0  0  0  0
   25.7940  -22.1070  -17.1830 C   0  0  0  0  0  1  0  0  0  0  0  0
   24.2200  -23.9920  -17.6740 C   0  0  0  0  0  1  0  0  0  0  0  0
   23.3940  -21.8930  -16.5900 C   0  0  0  0  0  1  0  0  0  0  0  0
  1 42  1  0
  1  2  1  0
  2  3  2  0
  4  6  1  0
  4  2  1  0
  5  1  1  0
  7  8  1  0
  8 10  1  0
  8  4  2  0
  9 11  1  0
  9 10  2  0
 12 14  1  0
 12 11  2  0
 13 12  1  0
 14 15  2  0
 15 16  1  0
 16 17  2  0
 18 16  1  0
 19 18  1  0
 19 20  1  0
 20 34  2  0
 21 19  1  0
 21 26  1  0
 22 23  1  0
 22 21  2  0
 23 24  2  0
 24 26  1  0
 24 25  1  0
 26 27  1  0
 27 33  2  0
 27 28  1  0
 28 29  1  0
 29 30  1  0
 31 32  1  0
 31 29  2  0
 33 31  1  0
 34 35  1  0
 34 33  1  0
 35 36  1  0
 36 37  2  0
 38 37  1  0
 38 39  1  0
 40 38  2  0
 41 40  1  0
 41 35  2  0
 42 48  1  0
 43 51  1  0
 43 44  1  0
 44 45  1  0
 45 68  1  0
 46 45  1  0
 47 46  1  0
 47 43  1  0
 48 47  1  0
 49 48  2  0
 50 53  1  0
 51 50  1  0
 52 51  2  0
 54 60  1  0
 54 50  1  0
 55 66  1  0
 55 56  1  0
 57 56  2  0
 58 55  2  0
 59 58  1  0
 59 60  2  0
 60 57  1  0
 61 62  1  0
 62 66  2  0
 62 63  1  0
 63 64  1  0
 65 64  1  0
 66 65  1  0
 67 63  1  0
 69 68  1  0
 70 73  1  1
 70 42  1  0
 71 70  1  0
 72 70  1  0
M  ISO  4   2 101   4 101  15 100  16 100
M  END
>  <TORSDO>  (176) 
F 16

>  <SCORE>  (176) 
-13.659

>  <name>  (176) 
175

>  <ligand_id>  (176) 
175

>  <original_smiles>  (176) 
[H]OC1([H])C([H])([H])N(C(=O)C([H])(N([H])C(=O)N([H])C(=C([H])[H])C([H])=C([H])C([H])=C(C([H])=C([H])C(=O)C([H])([H])C2([H])N=C(c3c([H])c([H])c(Cl)c([H])c3[H])c3c(sc(C([H])([H])[H])c3C([H])([H])[H])-n3c(C([H])([H])[H])nnc32)C([H])([H])[H])C(C([H])([H])[H])(C([H])([H])[H])C([H])([H])[H])C([H])(C(=O)N([H])C([H])([H])c2c([H])c([H])c(C3=C(C([H])([H])[H])N([H])C([H])([H])S3)c([H])c2[H])C1([H])[H]

>  <smiles>  (176) 
[H]OC1([H])C([H])([H])N(C(=O)C([H])(N([H])C(=O)N([H])C(=C([H])[H])C([H])=C([H])C([H])=C(C([H])=C([H])C(=O)C([H])([H])C2([H])N=C(c3c([H])c([H])c(Cl)c([H])c3[H])c3c(sc(C([H])([H])[H])c3C([H])([H])[H])-n3c(C([H])([H])[H])nnc32)C([H])([H])[H])C(C([H])([H])[H])(C([H])([H])[H])C([H])([H])[H])C([H])(C(=O)N([H])C([H])([H])c2c([H])c([H])c(C3=C(C([H])([H])[H])N([H])C([H])([H])S3)c([H])c2[H])C1([H])[H]

$$$$
176:0:0
     RDKit          3D

 74 81  0  0  1  0  0  0  0  0999 V2000
   25.7500  -24.4810  -15.2330 N   0  0  0  0  0  0  0  0  0  0  0  0
   26.5910  -25.1330  -14.4400 C   0  0  0  0  0  0  0  0  0  0  0  0
   27.1220  -24.5650  -13.4700 O   0  0  0  0  0  0  0  0  0  0  0  0
   26.2460  -27.0450  -15.9570 C   0  0  0  0  0  0  0  0  0  0  0  0
   26.6320  -26.4680  -14.7670 N   0  0  0  0  0  0  0  0  0  0  0  0
   26.3030  -26.4400  -17.0350 O   0  0  0  0  0  0  0  0  0  0  0  0
   25.5350  -24.9720  -16.0910 H   0  0  0  0  0  0  0  0  0  0  0  0
   26.9030  -27.0980  -14.0310 H   0  0  0  0  0  0  0  0  0  0  0  0
   25.6480  -30.8590  -16.6350 C   0  0  0  0  0  3  0  0  0  0  0  0
   24.4040  -30.2780  -16.6980 C   0  0  0  0  0  0  0  0  0  0  0  0
   25.7130  -28.4640  -16.0360 C   0  0  0  0  0  0  0  0  0  0  0  0
   24.4620  -28.9010  -16.3520 N   0  0  0  0  0  0  0  0  0  0  0  0
   26.9150  -29.7380  -16.2020 S   0  0  0  0  0  0  0  0  0  0  0  0
   23.1630  -31.0450  -17.1870 C   0  0  0  0  0  2  0  0  0  0  0  0
   20.7290  -31.4250  -16.4580 C   0  0  0  0  0  0  0  0  0  0  0  0
   19.7940  -30.9280  -15.8360 O   0  0  0  0  0  0  0  0  0  0  0  0
   21.8490  -30.6730  -16.6400 N   0  0  0  0  0  0  0  0  0  0  0  0
   21.8050  -29.7230  -16.2980 H   0  0  0  0  0  0  0  0  0  0  0  0
   20.6580  -32.9360  -16.8040 C   0  0  0  0  0  2  0  0  0  0  0  0
   21.1170  -33.7730  -15.5760 C   0  0  0  0  0  3  0  0  0  0  0  0
   22.4460  -33.3020  -15.2060 N   0  0  0  0  0  0  0  0  0  0  0  0
   21.1520  -35.2850  -15.7400 C   0  0  0  0  0  0  0  0  0  0  0  0
   20.9510  -35.9800  -16.8660 N   0  0  0  0  0  0  0  0  0  0  0  0
   21.1960  -37.3030  -16.5410 N   0  0  0  0  0  0  0  0  0  0  0  0
   21.5340  -37.3030  -15.2470 C   0  0  0  0  0  0  0  0  0  0  0  0
   21.9490  -38.5380  -14.5040 C   0  0  0  0  0  1  0  0  0  0  0  0
   21.4890  -36.0720  -14.6930 N   0  0  0  0  0  0  0  0  0  0  0  0
   21.7250  -35.6550  -13.3660 C   0  0  0  0  0  0  0  0  0  0  0  0
   21.2150  -36.4980  -11.9380 S   0  0  0  0  0  0  0  0  0  0  0  0
   21.8100  -35.2200  -10.9150 C   0  0  0  0  0  0  0  0  0  0  0  0
   21.6650  -35.3350   -9.4310 C   0  0  0  0  0  1  0  0  0  0  0  0
   22.3570  -34.1860  -11.6430 C   0  0  0  0  0  0  0  0  0  0  0  0
   22.8790  -32.9260  -10.9990 C   0  0  0  0  0  1  0  0  0  0  0  0
   22.3480  -34.4660  -13.0560 C   0  0  0  0  0  0  0  0  0  0  0  0
   22.9670  -33.5660  -14.0730 C   0  0  0  0  0  0  0  0  0  0  0  0
   24.2780  -32.9600  -13.7860 C   0  0  0  0  0  0  0  0  0  0  0  0
   25.3910  -33.7820  -13.5100 C   0  0  0  0  0  3  0  0  0  0  0  0
   26.6410  -33.2010  -13.2210 C   0  0  0  0  0  3  0  0  0  0  0  0
   26.7750  -31.8020  -13.1940 C   0  0  0  0  0  0  0  0  0  0  0  0
   28.3010  -31.0780  -12.8550 Cl  0  0  0  0  0  0  0  0  0  0  0  0
   25.6570  -30.9880  -13.4270 C   0  0  0  0  0  3  0  0  0  0  0  0
   24.4130  -31.5590  -13.7450 C   0  0  0  0  0  3  0  0  0  0  0  0
   24.7930  -23.4300  -14.9780 C   0  0  0  0  0  3  0  0  0  0  0  0
   21.5550  -23.7250  -12.7550 C   0  0  0  0  0  3  0  0  0  0  0  0
   21.0350  -22.4790  -12.0210 C   0  0  0  0  0  2  0  0  0  0  0  0
   22.2750  -21.6510  -11.7580 C   0  0  0  0  0  3  0  0  0  0  0  0
   23.2220  -21.9830  -12.9100 C   0  0  0  0  0  2  0  0  0  0  0  0
   22.7930  -23.2860  -13.4340 N   0  0  0  0  0  0  0  0  0  0  0  0
   23.5120  -24.0310  -14.3110 C   0  0  0  0  0  0  0  0  0  0  0  0
   23.1970  -25.1970  -14.5800 O   0  0  0  0  0  0  0  0  0  0  0  0
   19.6620  -25.2150  -13.1370 N   0  0  0  0  0  0  0  0  0  0  0  0
   20.4470  -24.2710  -13.6700 C   0  0  0  0  0  0  0  0  0  0  0  0
   20.2700  -23.8060  -14.7990 O   0  0  0  0  0  0  0  0  0  0  0  0
   19.8890  -25.5500  -12.2100 H   0  0  0  0  0  0  0  0  0  0  0  0
   18.4390  -25.7290  -13.7380 C   0  0  0  0  0  2  0  0  0  0  0  0
   14.9120  -23.3870  -12.7240 C   0  0  0  0  0  0  0  0  0  0  0  0
   15.9140  -23.6130  -11.7580 C   0  0  0  0  0  3  0  0  0  0  0  0
   17.0550  -24.3660  -12.0830 C   0  0  0  0  0  3  0  0  0  0  0  0
   15.0670  -23.9180  -14.0210 C   0  0  0  0  0  3  0  0  0  0  0  0
   16.2110  -24.6720  -14.3460 C   0  0  0  0  0  3  0  0  0  0  0  0
   17.2110  -24.9020  -13.3800 C   0  0  0  0  0  0  0  0  0  0  0  0
   11.8580  -23.9170  -13.6200 C   0  0  0  0  0  1  0  0  0  0  0  0
   12.4150  -22.8380  -12.7130 C   0  0  0  0  0  0  0  0  0  0  0  0
   11.5230  -21.9690  -12.1170 N   0  0  0  0  0  0  0  0  0  0  0  0
   12.0570  -21.0960  -11.0790 C   0  0  0  0  0  2  0  0  0  0  0  0
   13.8510  -21.2720  -11.2750 S   0  0  0  0  0  0  0  0  0  0  0  0
   13.6890  -22.6620  -12.3370 C   0  0  0  0  0  0  0  0  0  0  0  0
   10.5160  -22.0520  -12.2190 H   0  0  0  0  0  0  0  0  0  0  0  0
   22.8800  -22.0440  -10.5370 O   0  0  0  0  0  0  0  0  0  0  0  0
   23.1040  -22.9670  -10.5940 H   0  0  0  0  0  0  0  0  0  0  0  0
   24.5430  -22.7900  -16.3900 C   0  0  1  0  0  0  0  0  0  0  0  0
   25.8660  -22.1630  -16.8990 C   0  0  0  0  0  1  0  0  0  0  0  0
   24.0530  -23.8030  -17.4590 C   0  0  0  0  0  1  0  0  0  0  0  0
   23.5010  -21.6590  -16.3190 C   0  0  0  0  0  1  0  0  0  0  0  0
  1 43  1  0
  1  2  1  0
  2  3  2  0
  4  5  1  0
  5  2  1  0
  5  8  1  0
  6  4  2  0
  7  1  1  0
  9 13  1  0
 10  9  2  0
 10 12  1  0
 11  4  1  0
 12 11  2  0
 13 11  1  0
 14 10  1  0
 14 17  1  0
 15 16  2  0
 17 15  1  0
 17 18  1  0
 19 15  1  0
 20 19  1  0
 20 21  1  0
 21 35  2  0
 22 20  1  0
 22 27  1  0
 23 24  1  0
 23 22  2  0
 24 25  2  0
 25 27  1  0
 25 26  1  0
 27 28  1  0
 28 34  2  0
 28 29  1  0
 29 30  1  0
 30 31  1  0
 32 33  1  0
 32 30  2  0
 34 32  1  0
 35 36  1  0
 35 34  1  0
 36 42  2  0
 36 37  1  0
 37 38  2  0
 38 39  1  0
 39 40  1  0
 41 39  2  0
 42 41  1  0
 43 49  1  0
 44 52  1  0
 44 45  1  0
 45 46  1  0
 46 69  1  0
 47 46  1  0
 48 47  1  0
 48 44  1  0
 49 48  1  0
 50 49  2  0
 51 54  1  0
 52 51  1  0
 53 52  2  0
 55 61  1  0
 55 51  1  0
 56 67  1  0
 56 57  1  0
 58 57  2  0
 59 56  2  0
 60 59  1  0
 60 61  2  0
 61 58  1  0
 62 63  1  0
 63 67  2  0
 63 64  1  0
 64 65  1  0
 66 65  1  0
 67 66  1  0
 68 64  1  0
 70 69  1  0
 71 74  1  1
 71 43  1  0
 72 71  1  0
 73 71  1  0
M  ISO  4   2 101   5 101  15 100  17 100
M  END
>  <TORSDO>  (177) 
F 14

>  <SCORE>  (177) 
-10.875

>  <name>  (177) 
176

>  <ligand_id>  (177) 
176

>  <original_smiles>  (177) 
[H]OC1([H])C([H])([H])N(C(=O)C([H])(N([H])C(=O)N([H])C(=O)c2nc(C([H])([H])N([H])C(=O)C([H])([H])C3([H])N=C(c4c([H])c([H])c(Cl)c([H])c4[H])c4c(sc(C([H])([H])[H])c4C([H])([H])[H])-n4c(C([H])([H])[H])nnc43)c([H])s2)C(C([H])([H])[H])(C([H])([H])[H])C([H])([H])[H])C([H])(C(=O)N([H])C([H])([H])c2c([H])c([H])c(C3=C(C([H])([H])[H])N([H])C([H])([H])S3)c([H])c2[H])C1([H])[H]

>  <smiles>  (177) 
[H]OC1([H])C([H])([H])N(C(=O)C([H])(N([H])C(=O)N([H])C(=O)c2nc(C([H])([H])N([H])C(=O)C([H])([H])C3([H])N=C(c4c([H])c([H])c(Cl)c([H])c4[H])c4c(sc(C([H])([H])[H])c4C([H])([H])[H])-n4c(C([H])([H])[H])nnc43)c([H])s2)C(C([H])([H])[H])(C([H])([H])[H])C([H])([H])[H])C([H])(C(=O)N([H])C([H])([H])c2c([H])c([H])c(C3=C(C([H])([H])[H])N([H])C([H])([H])S3)c([H])c2[H])C1([H])[H]

$$$$
177:0:0
     RDKit          3D

 81 87  0  0  1  0  0  0  0  0999 V2000
   24.9570  -28.6610  -17.1590 C   0  0  0  0  0  0  0  0  0  0  0  0
   26.9180  -27.2770  -16.6950 C   0  0  0  0  0  0  0  0  0  0  0  0
   25.5970  -29.5530  -17.9370 N   0  0  0  0  0  4  0  0  0  0  0  0
   27.5300  -27.5600  -17.8550 N   0  0  0  0  0  4  0  0  0  0  0  0
   25.6360  -27.6880  -16.4760 N   0  0  0  0  0  0  0  0  0  0  0  0
   27.6390  -26.5480  -15.8060 N   0  0  0  0  0  0  0  0  0  0  0  0
   25.0970  -30.1510  -18.5670 H   0  0  0  0  0  0  0  0  0  0  0  0
   26.5970  -29.5420  -18.0190 H   0  0  0  0  0  0  0  0  0  0  0  0
   27.0420  -27.3830  -18.7250 H   0  0  0  0  0  0  0  0  0  0  0  0
   28.5320  -27.4330  -17.9290 H   0  0  0  0  0  0  0  0  0  0  0  0
   25.1060  -27.2460  -15.7380 H   0  0  0  0  0  0  0  0  0  0  0  0
   28.5630  -26.1870  -15.9950 H   0  0  0  0  0  0  0  0  0  0  0  0
   23.4120  -28.7540  -17.0460 C   0  0  0  0  0  0  0  0  0  0  0  0
   22.8430  -29.9500  -17.3250 N   0  0  0  0  0  0  0  0  0  0  0  0
   22.7820  -27.7390  -16.7390 O   0  0  0  0  0  0  0  0  0  0  0  0
   23.3390  -30.8280  -17.4180 H   0  0  0  0  0  0  0  0  0  0  0  0
   20.7390  -30.9160  -16.8190 C   0  0  0  0  0  0  0  0  0  0  0  0
   20.2230  -30.4880  -15.7860 O   0  0  0  0  0  0  0  0  0  0  0  0
   21.4510  -30.1130  -17.6310 N   0  0  0  0  0  0  0  0  0  0  0  0
   21.4250  -30.3740  -18.6090 H   0  0  0  0  0  0  0  0  0  0  0  0
   20.7360  -32.4250  -17.1220 C   0  0  0  0  0  2  0  0  0  0  0  0
   21.2600  -33.2570  -15.9160 C   0  0  0  0  0  3  0  0  0  0  0  0
   22.6320  -32.8470  -15.6030 N   0  0  0  0  0  0  0  0  0  0  0  0
   21.2120  -34.7630  -16.1100 C   0  0  0  0  0  0  0  0  0  0  0  0
   20.9280  -35.4160  -17.2440 N   0  0  0  0  0  0  0  0  0  0  0  0
   21.0990  -36.7590  -16.9560 N   0  0  0  0  0  0  0  0  0  0  0  0
   21.4810  -36.8100  -15.6770 C   0  0  0  0  0  0  0  0  0  0  0  0
   21.8350  -38.0860  -14.9740 C   0  0  0  0  0  1  0  0  0  0  0  0
   21.5410  -35.5910  -15.0980 N   0  0  0  0  0  0  0  0  0  0  0  0
   21.8560  -35.2160  -13.7760 C   0  0  0  0  0  0  0  0  0  0  0  0
   21.3430  -36.0540  -12.3460 S   0  0  0  0  0  0  0  0  0  0  0  0
   22.0600  -34.8390  -11.3250 C   0  0  0  0  0  0  0  0  0  0  0  0
   21.9630  -34.9790   -9.8390 C   0  0  0  0  0  1  0  0  0  0  0  0
   22.6500  -33.8290  -12.0550 C   0  0  0  0  0  0  0  0  0  0  0  0
   23.2810  -32.6240  -11.4050 C   0  0  0  0  0  1  0  0  0  0  0  0
   22.5640  -34.0740  -13.4730 C   0  0  0  0  0  0  0  0  0  0  0  0
   23.1940  -33.1840  -14.5030 C   0  0  0  0  0  0  0  0  0  0  0  0
   24.5630  -32.6800  -14.2590 C   0  0  0  0  0  0  0  0  0  0  0  0
   25.5580  -33.5490  -13.7630 C   0  0  0  0  0  3  0  0  0  0  0  0
   26.8550  -33.0620  -13.5080 C   0  0  0  0  0  3  0  0  0  0  0  0
   27.1580  -31.7100  -13.7500 C   0  0  0  0  0  0  0  0  0  0  0  0
   28.7430  -31.1100  -13.4370 Cl  0  0  0  0  0  0  0  0  0  0  0  0
   26.1680  -30.8400  -14.2410 C   0  0  0  0  0  3  0  0  0  0  0  0
   24.8710  -31.3240  -14.4960 C   0  0  0  0  0  3  0  0  0  0  0  0
   27.1860  -26.2260  -14.5360 O   0  0  0  0  0  0  0  0  0  0  0  0
   25.9580  -24.5460  -15.3350 N   0  0  0  0  0  0  0  0  0  0  0  0
   26.9250  -24.8920  -14.4210 C   0  0  0  0  0  0  0  0  0  0  0  0
   27.3330  -24.1730  -13.5040 O   0  0  0  0  0  0  0  0  0  0  0  0
   25.6950  -25.2630  -15.9870 H   0  0  0  0  0  0  0  0  0  0  0  0
   24.9690  -23.4860  -15.1860 C   0  0  0  0  0  3  0  0  0  0  0  0
   21.8340  -23.9760  -12.8520 C   0  0  0  0  0  3  0  0  0  0  0  0
   21.3130  -22.7940  -12.0190 C   0  0  0  0  0  2  0  0  0  0  0  0
   22.5410  -21.9460  -11.7620 C   0  0  0  0  0  3  0  0  0  0  0  0
   23.4430  -22.1800  -12.9730 C   0  0  0  0  0  2  0  0  0  0  0  0
   23.0250  -23.4590  -13.5590 N   0  0  0  0  0  0  0  0  0  0  0  0
   23.7160  -24.1330  -14.5130 C   0  0  0  0  0  0  0  0  0  0  0  0
   23.4160  -25.2900  -14.8360 O   0  0  0  0  0  0  0  0  0  0  0  0
   19.9180  -25.4410  -13.2090 N   0  0  0  0  0  0  0  0  0  0  0  0
   20.7020  -24.5030  -13.7500 C   0  0  0  0  0  0  0  0  0  0  0  0
   20.5100  -24.0270  -14.8710 O   0  0  0  0  0  0  0  0  0  0  0  0
   20.1560  -25.7850  -12.2890 H   0  0  0  0  0  0  0  0  0  0  0  0
   18.6790  -25.9380  -13.7940 C   0  0  0  0  0  2  0  0  0  0  0  0
   15.2350  -23.4390  -12.8790 C   0  0  0  0  0  0  0  0  0  0  0  0
   16.2570  -23.6130  -11.9240 C   0  0  0  0  0  3  0  0  0  0  0  0
   17.3720  -24.4170  -12.2170 C   0  0  0  0  0  3  0  0  0  0  0  0
   15.3420  -24.0740  -14.1340 C   0  0  0  0  0  3  0  0  0  0  0  0
   16.4600  -24.8790  -14.4270 C   0  0  0  0  0  3  0  0  0  0  0  0
   17.4810  -25.0560  -13.4710 C   0  0  0  0  0  0  0  0  0  0  0  0
   12.1370  -24.0160  -13.5730 C   0  0  0  0  0  1  0  0  0  0  0  0
   12.7470  -22.8530  -12.8160 C   0  0  0  0  0  0  0  0  0  0  0  0
   11.8920  -21.9110  -12.2810 N   0  0  0  0  0  0  0  0  0  0  0  0
   12.4830  -20.9380  -11.3700 C   0  0  0  0  0  2  0  0  0  0  0  0
   14.2640  -21.1620  -11.6260 S   0  0  0  0  0  0  0  0  0  0  0  0
   14.0390  -22.6570  -12.5200 C   0  0  0  0  0  0  0  0  0  0  0  0
   10.8800  -21.9890  -12.3260 H   0  0  0  0  0  0  0  0  0  0  0  0
   23.2100  -22.3920  -10.5920 O   0  0  0  0  0  0  0  0  0  0  0  0
   23.4520  -23.3060  -10.7120 H   0  0  0  0  0  0  0  0  0  0  0  0
   24.6910  -22.9190  -16.6240 C   0  0  1  0  0  0  0  0  0  0  0  0
   25.9410  -22.1380  -17.0950 C   0  0  0  0  0  1  0  0  0  0  0  0
   24.3930  -24.0210  -17.6730 C   0  0  0  0  0  1  0  0  0  0  0  0
   23.5100  -21.9270  -16.6270 C   0  0  0  0  0  1  0  0  0  0  0  0
  1 13  1  0
  1  5  1  0
  2  5  1  0
  2  6  1  0
  3  1  2  0
  4  2  2  0
  5 11  1  0
  6 45  1  0
  7  3  1  0
  8  3  1  0
  9  4  1  0
 10  4  1  0
 12  6  1  0
 13 15  2  0
 14 13  1  0
 16 14  1  0
 17 18  2  0
 19 14  1  0
 19 17  1  0
 20 19  1  0
 21 17  1  0
 22 21  1  0
 22 23  1  0
 23 37  2  0
 24 22  1  0
 24 29  1  0
 25 26  1  0
 25 24  2  0
 26 27  2  0
 27 29  1  0
 27 28  1  0
 29 30  1  0
 30 36  2  0
 30 31  1  0
 31 32  1  0
 32 33  1  0
 34 35  1  0
 34 32  2  0
 36 34  1  0
 37 38  1  0
 37 36  1  0
 38 39  1  0
 39 40  2  0
 41 40  1  0
 41 42  1  0
 43 41  2  0
 44 38  2  0
 44 43  1  0
 45 47  1  0
 46 50  1  0
 46 47  1  0
 47 48  2  0
 49 46  1  0
 50 56  1  0
 51 59  1  0
 51 52  1  0
 52 53  1  0
 53 76  1  0
 54 53  1  0
 55 54  1  0
 55 51  1  0
 56 55  1  0
 57 56  2  0
 58 61  1  0
 59 58  1  0
 60 59  2  0
 62 68  1  0
 62 58  1  0
 63 74  1  0
 63 64  1  0
 65 64  2  0
 66 63  2  0
 67 66  1  0
 67 68  2  0
 68 65  1  0
 69 70  1  0
 70 74  2  0
 70 71  1  0
 71 72  1  0
 73 72  1  0
 74 73  1  0
 75 71  1  0
 77 76  1  0
 78 50  1  0
 78 79  1  6
 80 78  1  0
 81 78  1  0
M  ISO  4  17 100  19 100  45 101  47 101
M  END
>  <TORSDO>  (178) 
F 15

>  <SCORE>  (178) 
-13.328

>  <name>  (178) 
177

>  <ligand_id>  (178) 
177

>  <original_smiles>  (178) 
[H]OC1([H])C([H])([H])N(C(=O)C([H])(N([H])C(=O)O[N+]([H])=C(N([H])[H])N([H])C(C(=O)N([H])N([H])C(=O)C([H])([H])C2([H])N=C(c3c([H])c([H])c(Cl)c([H])c3[H])c3c(sc(C([H])([H])[H])c3C([H])([H])[H])-n3c(C([H])([H])[H])nnc32)=[N+]([H])[H])C(C([H])([H])[H])(C([H])([H])[H])C([H])([H])[H])C([H])(C(=O)N([H])C([H])([H])c2c([H])c([H])c(C3=C(C([H])([H])[H])N([H])C([H])([H])S3)c([H])c2[H])C1([H])[H]

>  <smiles>  (178) 
[H]OC1([H])C([H])([H])N(C(=O)C([H])(N([H])C(=O)O[N+]([H])=C(N([H])[H])N([H])C(C(=O)N([H])N([H])C(=O)C([H])([H])C2([H])N=C(c3c([H])c([H])c(Cl)c([H])c3[H])c3c(sc(C([H])([H])[H])c3C([H])([H])[H])-n3c(C([H])([H])[H])nnc32)=[N+]([H])[H])C(C([H])([H])[H])(C([H])([H])[H])C([H])([H])[H])C([H])(C(=O)N([H])C([H])([H])c2c([H])c([H])c(C3=C(C([H])([H])[H])N([H])C([H])([H])S3)c([H])c2[H])C1([H])[H]

$$$$
178:0:0
     RDKit          3D

 76 82  0  0  1  0  0  0  0  0999 V2000
   23.8120  -27.8220  -15.7190 C   0  0  0  0  0  3  0  0  0  0  0  0
   22.7680  -28.3290  -13.4830 C   0  0  0  0  0  1  0  0  0  0  0  0
   22.7840  -28.2340  -14.9530 N   0  0  0  0  0  0  0  0  0  0  0  0
   23.6420  -27.8010  -17.0670 N   0  0  0  0  0  0  0  0  0  0  0  0
   24.9790  -27.4760  -15.1220 N   0  0  0  0  0  0  0  0  0  0  0  0
   21.9380  -28.4970  -15.4400 H   0  0  0  0  0  0  0  0  0  0  0  0
   24.4100  -27.6390  -17.7080 H   0  0  0  0  0  0  0  0  0  0  0  0
   25.1010  -27.4010  -14.1220 H   0  0  0  0  0  0  0  0  0  0  0  0
   22.4610  -28.2910  -17.6330 O   0  0  0  0  0  0  0  0  0  0  0  0
   22.6800  -28.7890  -18.9650 C   0  0  0  0  0  2  0  0  0  0  0  0
   22.0210  -30.1780  -19.2270 C   0  0  0  0  0  2  0  0  0  0  0  0
   20.4520  -31.3970  -17.6330 C   0  0  0  0  0  0  0  0  0  0  0  0
   19.7480  -31.1290  -16.6700 O   0  0  0  0  0  0  0  0  0  0  0  0
   20.8230  -30.3600  -18.4090 N   0  0  0  0  0  0  0  0  0  0  0  0
   20.3820  -29.4850  -18.1610 H   0  0  0  0  0  0  0  0  0  0  0  0
   20.9770  -32.8450  -17.8000 C   0  0  0  0  0  2  0  0  0  0  0  0
   21.3770  -33.4410  -16.4210 C   0  0  0  0  0  3  0  0  0  0  0  0
   22.7300  -32.9750  -16.1420 N   0  0  0  0  0  0  0  0  0  0  0  0
   21.3320  -34.9550  -16.2830 C   0  0  0  0  0  0  0  0  0  0  0  0
   21.0890  -35.8460  -17.2500 N   0  0  0  0  0  0  0  0  0  0  0  0
   21.2640  -37.0880  -16.6660 N   0  0  0  0  0  0  0  0  0  0  0  0
   21.6070  -36.8520  -15.3960 C   0  0  0  0  0  0  0  0  0  0  0  0
   21.9590  -37.9340  -14.4200 C   0  0  0  0  0  1  0  0  0  0  0  0
   21.6300  -35.5350  -15.1000 N   0  0  0  0  0  0  0  0  0  0  0  0
   21.8960  -34.8750  -13.8800 C   0  0  0  0  0  0  0  0  0  0  0  0
   21.3420  -35.3780  -12.3140 S   0  0  0  0  0  0  0  0  0  0  0  0
   22.0240  -33.9580  -11.5660 C   0  0  0  0  0  0  0  0  0  0  0  0
   21.8870  -33.7630  -10.0910 C   0  0  0  0  0  1  0  0  0  0  0  0
   22.6240  -33.1260  -12.4850 C   0  0  0  0  0  0  0  0  0  0  0  0
   23.2170  -31.7890  -12.1110 C   0  0  0  0  0  1  0  0  0  0  0  0
   22.5900  -33.6880  -13.8100 C   0  0  0  0  0  0  0  0  0  0  0  0
   23.2530  -33.0490  -14.9840 C   0  0  0  0  0  0  0  0  0  0  0  0
   24.6080  -32.4870  -14.8210 C   0  0  0  0  0  0  0  0  0  0  0  0
   25.5370  -33.0850  -13.9460 C   0  0  0  0  0  3  0  0  0  0  0  0
   26.8140  -32.5170  -13.7820 C   0  0  0  0  0  3  0  0  0  0  0  0
   27.1730  -31.3650  -14.5040 C   0  0  0  0  0  0  0  0  0  0  0  0
   28.7350  -30.6610  -14.3160 Cl  0  0  0  0  0  0  0  0  0  0  0  0
   26.2560  -30.7830  -15.3900 C   0  0  0  0  0  3  0  0  0  0  0  0
   24.9740  -31.3350  -15.5390 C   0  0  0  0  0  3  0  0  0  0  0  0
   26.0150  -26.9180  -15.8410 O   0  0  0  0  0  0  0  0  0  0  0  0
   24.9660  -25.0810  -16.3120 N   0  0  0  0  0  0  0  0  0  0  0  0
   26.0040  -25.6100  -15.5930 C   0  0  0  0  0  0  0  0  0  0  0  0
   26.6570  -25.0400  -14.7180 O   0  0  0  0  0  0  0  0  0  0  0  0
   24.5540  -25.6910  -16.9990 H   0  0  0  0  0  0  0  0  0  0  0  0
   24.1730  -23.9190  -15.9370 C   0  0  0  0  0  3  0  0  0  0  0  0
   21.2950  -24.1270  -13.2540 C   0  0  0  0  0  3  0  0  0  0  0  0
   21.0390  -22.9390  -12.3120 C   0  0  0  0  0  2  0  0  0  0  0  0
   22.3920  -22.2720  -12.1760 C   0  0  0  0  0  3  0  0  0  0  0  0
   23.1100  -22.5550  -13.4970 C   0  0  0  0  0  2  0  0  0  0  0  0
   22.4530  -23.7300  -14.0810 N   0  0  0  0  0  0  0  0  0  0  0  0
   22.9330  -24.4340  -15.1360 C   0  0  0  0  0  0  0  0  0  0  0  0
   22.4530  -25.5310  -15.4540 O   0  0  0  0  0  0  0  0  0  0  0  0
   19.1750  -25.3220  -13.4460 N   0  0  0  0  0  0  0  0  0  0  0  0
   20.0030  -24.4480  -14.0270 C   0  0  0  0  0  0  0  0  0  0  0  0
   19.7420  -23.8730  -15.0880 O   0  0  0  0  0  0  0  0  0  0  0  0
   19.4780  -25.7580  -12.5870 H   0  0  0  0  0  0  0  0  0  0  0  0
   17.8230  -25.6200  -13.8970 C   0  0  0  0  0  2  0  0  0  0  0  0
   14.8580  -22.8110  -12.3940 C   0  0  0  0  0  0  0  0  0  0  0  0
   15.9290  -23.2170  -11.5710 C   0  0  0  0  0  3  0  0  0  0  0  0
   16.8890  -24.1230  -12.0540 C   0  0  0  0  0  3  0  0  0  0  0  0
   14.7620  -23.3160  -13.7070 C   0  0  0  0  0  3  0  0  0  0  0  0
   15.7250  -24.2210  -14.1900 C   0  0  0  0  0  3  0  0  0  0  0  0
   16.7920  -24.6310  -13.3670 C   0  0  0  0  0  0  0  0  0  0  0  0
   11.6740  -22.8170  -12.9190 C   0  0  0  0  0  1  0  0  0  0  0  0
   12.5000  -21.8810  -12.0590 C   0  0  0  0  0  0  0  0  0  0  0  0
   11.8340  -20.9140  -11.3330 N   0  0  0  0  0  0  0  0  0  0  0  0
   12.6220  -20.1820  -10.3470 C   0  0  0  0  0  2  0  0  0  0  0  0
   14.3280  -20.6260  -10.7680 S   0  0  0  0  0  0  0  0  0  0  0  0
   13.8220  -21.9230  -11.8390 C   0  0  0  0  0  0  0  0  0  0  0  0
   10.8220  -20.8350  -11.3080 H   0  0  0  0  0  0  0  0  0  0  0  0
   23.1240  -22.8580  -11.1110 O   0  0  0  0  0  0  0  0  0  0  0  0
   23.2240  -23.7880  -11.2900 H   0  0  0  0  0  0  0  0  0  0  0  0
   23.8050  -23.1730  -17.2660 C   0  0  1  0  0  0  0  0  0  0  0  0
   25.0860  -22.5230  -17.8370 C   0  0  0  0  0  1  0  0  0  0  0  0
   23.2200  -24.1110  -18.3540 C   0  0  0  0  0  1  0  0  0  0  0  0
   22.7930  -22.0360  -17.0140 C   0  0  0  0  0  1  0  0  0  0  0  0
  1  4  1  0
  1  5  1  0
  1  3  1  0
  3  2  1  0
  5  8  1  0
  6  3  1  0
  7  4  1  0
  9  4  1  0
 10  9  1  0
 11 10  1  0
 11 14  1  0
 12 13  2  0
 14 15  1  0
 14 12  1  0
 16 12  1  0
 17 16  1  0
 17 19  1  0
 17 18  1  0
 18 32  2  0
 19 24  1  0
 20 21  1  0
 20 19  2  0
 21 22  2  0
 22 24  1  0
 22 23  1  0
 24 25  1  0
 25 31  2  0
 25 26  1  0
 26 27  1  0
 27 28  1  0
 29 30  1  0
 29 27  2  0
 31 29  1  0
 32 33  1  0
 32 31  1  0
 33 34  1  0
 34 35  2  0
 36 37  1  0
 36 35  1  0
 38 36  2  0
 39 38  1  0
 39 33  2  0
 40 42  1  0
 40  5  1  0
 41 45  1  0
 41 42  1  0
 42 43  2  0
 44 41  1  0
 45 51  1  0
 46 54  1  0
 46 47  1  0
 47 48  1  0
 48 71  1  0
 49 48  1  0
 50 49  1  0
 50 46  1  0
 51 50  1  0
 52 51  2  0
 53 56  1  0
 54 53  1  0
 55 54  2  0
 57 53  1  0
 57 63  1  0
 58 69  1  0
 58 59  1  0
 60 59  2  0
 61 58  2  0
 62 61  1  0
 62 63  2  0
 63 60  1  0
 64 65  1  0
 65 69  2  0
 65 66  1  0
 66 70  1  0
 66 67  1  0
 68 67  1  0
 69 68  1  0
 72 71  1  0
 73 76  1  1
 73 45  1  0
 74 73  1  0
 75 73  1  0
M  ISO  4  12 100  14 100  40 101  42 101
M  END
>  <TORSDO>  (179) 
F 17

>  <SCORE>  (179) 
-9.566

>  <name>  (179) 
178

>  <ligand_id>  (179) 
178

>  <original_smiles>  (179) 
[H]OC1([H])C([H])([H])N(C(=O)C([H])(N([H])C(=O)O[N+]([H])=C(N([H])OC([H])([H])C([H])([H])N([H])C(=O)C([H])([H])C2([H])N=C(c3c([H])c([H])c(Cl)c([H])c3[H])c3c(sc(C([H])([H])[H])c3C([H])([H])[H])-n3c(C([H])([H])[H])nnc32)N([H])C([H])([H])[H])C(C([H])([H])[H])(C([H])([H])[H])C([H])([H])[H])C([H])(C(=O)N([H])C([H])([H])c2c([H])c([H])c(C3=C(C([H])([H])[H])N([H])C([H])([H])S3)c([H])c2[H])C1([H])[H]

>  <smiles>  (179) 
[H]OC1([H])C([H])([H])N(C(=O)C([H])(N([H])C(=O)O[N+]([H])=C(N([H])OC([H])([H])C([H])([H])N([H])C(=O)C([H])([H])C2([H])N=C(c3c([H])c([H])c(Cl)c([H])c3[H])c3c(sc(C([H])([H])[H])c3C([H])([H])[H])-n3c(C([H])([H])[H])nnc32)N([H])C([H])([H])[H])C(C([H])([H])[H])(C([H])([H])[H])C([H])([H])[H])C([H])(C(=O)N([H])C([H])([H])c2c([H])c([H])c(C3=C(C([H])([H])[H])N([H])C([H])([H])S3)c([H])c2[H])C1([H])[H]

$$$$
179:0:0
     RDKit          3D

 82 88  0  0  1  0  0  0  0  0999 V2000
   27.3100  -27.4690  -16.9300 C   0  0  0  0  0  0  0  0  0  0  0  0
   26.7250  -27.2230  -15.7440 N   0  0  0  0  0  0  0  0  0  0  0  0
   28.3180  -26.8400  -17.2800 O   0  0  0  0  0  0  0  0  0  0  0  0
   25.9060  -27.6910  -15.3740 H   0  0  0  0  0  0  0  0  0  0  0  0
   25.9510  -24.7130  -15.2190 N   0  0  0  0  0  0  0  0  0  0  0  0
   26.9070  -25.1770  -14.4150 C   0  0  0  0  0  0  0  0  0  0  0  0
   27.3170  -24.5750  -13.4220 O   0  0  0  0  0  0  0  0  0  0  0  0
   27.3610  -26.3890  -14.7650 N   0  0  0  0  0  0  0  0  0  0  0  0
   25.7010  -25.3000  -15.9970 H   0  0  0  0  0  0  0  0  0  0  0  0
   28.0960  -26.8740  -14.2660 H   0  0  0  0  0  0  0  0  0  0  0  0
   25.0540  -23.5860  -14.9750 C   0  0  0  0  0  3  0  0  0  0  0  0
   21.8820  -23.8810  -12.6690 C   0  0  0  0  0  3  0  0  0  0  0  0
   21.3990  -22.6560  -11.8730 C   0  0  0  0  0  2  0  0  0  0  0  0
   22.6550  -21.8490  -11.6280 C   0  0  0  0  0  3  0  0  0  0  0  0
   23.5590  -22.1520  -12.8230 C   0  0  0  0  0  2  0  0  0  0  0  0
   23.0980  -23.4320  -13.3770 N   0  0  0  0  0  0  0  0  0  0  0  0
   23.7730  -24.1630  -14.3000 C   0  0  0  0  0  0  0  0  0  0  0  0
   23.4250  -25.3130  -14.5980 O   0  0  0  0  0  0  0  0  0  0  0  0
   19.9470  -25.3210  -13.0230 N   0  0  0  0  0  0  0  0  0  0  0  0
   20.7380  -24.3880  -13.5620 C   0  0  0  0  0  0  0  0  0  0  0  0
   20.5440  -23.9030  -14.6790 O   0  0  0  0  0  0  0  0  0  0  0  0
   20.1890  -25.6770  -12.1080 H   0  0  0  0  0  0  0  0  0  0  0  0
   18.6980  -25.8010  -13.6010 C   0  0  0  0  0  2  0  0  0  0  0  0
   15.2870  -23.2710  -12.6390 C   0  0  0  0  0  0  0  0  0  0  0  0
   16.3150  -23.4660  -11.6920 C   0  0  0  0  0  3  0  0  0  0  0  0
   17.4190  -24.2780  -12.0010 C   0  0  0  0  0  3  0  0  0  0  0  0
   15.3790  -23.8970  -13.9010 C   0  0  0  0  0  3  0  0  0  0  0  0
   16.4870  -24.7110  -14.2080 C   0  0  0  0  0  3  0  0  0  0  0  0
   17.5120  -24.9070  -13.2620 C   0  0  0  0  0  0  0  0  0  0  0  0
   12.1770  -23.8190  -13.3000 C   0  0  0  0  0  1  0  0  0  0  0  0
   12.8060  -22.6640  -12.5460 C   0  0  0  0  0  0  0  0  0  0  0  0
   11.9650  -21.7170  -11.9990 N   0  0  0  0  0  0  0  0  0  0  0  0
   12.5760  -20.7500  -11.0930 C   0  0  0  0  0  2  0  0  0  0  0  0
   14.3520  -20.9900  -11.3690 S   0  0  0  0  0  0  0  0  0  0  0  0
   14.1030  -22.4810  -12.2640 C   0  0  0  0  0  0  0  0  0  0  0  0
   10.9520  -21.7860  -12.0320 H   0  0  0  0  0  0  0  0  0  0  0  0
   23.2970  -22.2870  -10.4400 O   0  0  0  0  0  0  0  0  0  0  0  0
   23.5070  -23.2110  -10.5340 H   0  0  0  0  0  0  0  0  0  0  0  0
   24.7770  -22.8810  -16.3540 C   0  0  1  0  0  0  0  0  0  0  0  0
   26.0920  -22.2460  -16.8610 C   0  0  0  0  0  1  0  0  0  0  0  0
   24.2600  -23.8500  -17.4470 C   0  0  0  0  0  1  0  0  0  0  0  0
   23.7520  -21.7340  -16.2130 C   0  0  0  0  0  1  0  0  0  0  0  0
   26.7610  -28.6090  -17.8270 C   0  0  0  0  0  3  0  0  0  0  0  0
   27.7050  -28.8710  -18.9240 N   0  0  0  0  0  4  0  0  0  0  0  0
   27.7500  -28.0360  -19.4820 H   0  0  0  0  0  0  0  0  0  0  0  0
   27.3940  -29.6350  -19.4930 H   0  0  0  0  0  0  0  0  0  0  0  0
   28.6180  -29.0570  -18.5510 H   0  0  0  0  0  0  0  0  0  0  0  0
   25.3990  -28.2010  -18.4320 C   0  0  0  0  0  0  0  0  0  0  0  0
   24.3000  -28.8770  -18.0520 N   0  0  0  0  0  0  0  0  0  0  0  0
   25.3490  -27.3220  -19.2970 O   0  0  0  0  0  0  0  0  0  0  0  0
   24.3850  -29.6040  -17.3540 H   0  0  0  0  0  0  0  0  0  0  0  0
   22.9660  -28.6920  -18.6350 C   0  0  0  0  0  2  0  0  0  0  0  0
   20.7380  -31.3240  -17.1370 C   0  0  0  0  0  0  0  0  0  0  0  0
   20.0510  -30.8980  -16.2030 O   0  0  0  0  0  0  0  0  0  0  0  0
   21.8810  -29.2590  -17.7160 C   0  0  0  0  0  0  0  0  0  0  0  0
   21.5570  -30.5560  -17.8900 N   0  0  0  0  0  0  0  0  0  0  0  0
   21.4040  -28.5140  -16.8540 O   0  0  0  0  0  0  0  0  0  0  0  0
   22.0600  -31.0350  -18.6210 H   0  0  0  0  0  0  0  0  0  0  0  0
   20.8110  -32.8430  -17.3700 C   0  0  0  0  0  2  0  0  0  0  0  0
   21.3420  -33.5790  -16.1070 C   0  0  0  0  0  3  0  0  0  0  0  0
   22.6660  -33.0490  -15.7720 N   0  0  0  0  0  0  0  0  0  0  0  0
   21.4180  -35.0920  -16.2330 C   0  0  0  0  0  0  0  0  0  0  0  0
   21.2200  -35.8150  -17.3410 N   0  0  0  0  0  0  0  0  0  0  0  0
   21.4840  -37.1240  -16.9870 N   0  0  0  0  0  0  0  0  0  0  0  0
   21.8280  -37.0890  -15.6950 C   0  0  0  0  0  0  0  0  0  0  0  0
   22.2560  -38.3010  -14.9240 C   0  0  0  0  0  1  0  0  0  0  0  0
   21.7760  -35.8450  -15.1740 N   0  0  0  0  0  0  0  0  0  0  0  0
   22.0180  -35.3880  -13.8620 C   0  0  0  0  0  0  0  0  0  0  0  0
   21.5230  -36.1980  -12.4100 S   0  0  0  0  0  0  0  0  0  0  0  0
   22.1110  -34.8880  -11.4260 C   0  0  0  0  0  0  0  0  0  0  0  0
   21.9750  -34.9700   -9.9380 C   0  0  0  0  0  1  0  0  0  0  0  0
   22.6440  -33.8670  -12.1840 C   0  0  0  0  0  0  0  0  0  0  0  0
   23.1580  -32.5880  -11.5750 C   0  0  0  0  0  1  0  0  0  0  0  0
   22.6260  -34.1800  -13.5920 C   0  0  0  0  0  0  0  0  0  0  0  0
   23.2180  -33.2910  -14.6430 C   0  0  0  0  0  0  0  0  0  0  0  0
   24.5350  -32.6680  -14.3870 C   0  0  0  0  0  0  0  0  0  0  0  0
   25.5810  -33.4350  -13.8280 C   0  0  0  0  0  3  0  0  0  0  0  0
   26.8260  -32.8390  -13.5580 C   0  0  0  0  0  3  0  0  0  0  0  0
   27.0300  -31.4770  -13.8450 C   0  0  0  0  0  0  0  0  0  0  0  0
   28.5520  -30.7410  -13.5130 Cl  0  0  0  0  0  0  0  0  0  0  0  0
   25.9900  -30.7110  -14.4010 C   0  0  0  0  0  3  0  0  0  0  0  0
   24.7440  -31.3030  -14.6820 C   0  0  0  0  0  3  0  0  0  0  0  0
  1  2  1  0
  2  4  1  0
  2  8  1  0
  3  1  2  0
  5 11  1  0
  5  6  1  0
  6  7  2  0
  8  6  1  0
  8 10  1  0
  9  5  1  0
 11 17  1  0
 12 20  1  0
 12 13  1  0
 13 14  1  0
 14 37  1  0
 15 14  1  0
 16 15  1  0
 16 12  1  0
 17 16  1  0
 18 17  2  0
 19 22  1  0
 20 19  1  0
 21 20  2  0
 23 29  1  0
 23 19  1  0
 24 35  1  0
 24 25  1  0
 26 25  2  0
 27 24  2  0
 28 27  1  0
 28 29  2  0
 29 26  1  0
 30 31  1  0
 31 35  2  0
 31 32  1  0
 32 33  1  0
 34 33  1  0
 35 34  1  0
 36 32  1  0
 38 37  1  0
 39 42  1  1
 39 11  1  0
 40 39  1  0
 41 39  1  0
 43 48  1  0
 43  1  1  0
 44 47  1  0
 44 43  1  0
 45 44  1  0
 46 44  1  0
 48 49  1  0
 49 51  1  0
 50 48  2  0
 52 49  1  0
 52 55  1  0
 53 54  2  0
 55 57  2  0
 56 55  1  0
 56 53  1  0
 58 56  1  0
 59 53  1  0
 60 59  1  0
 60 61  1  0
 61 75  2  0
 62 60  1  0
 62 67  1  0
 63 64  1  0
 63 62  2  0
 64 65  2  0
 65 67  1  0
 65 66  1  0
 67 68  1  0
 68 74  2  0
 68 69  1  0
 69 70  1  0
 70 71  1  0
 72 73  1  0
 72 70  2  0
 74 72  1  0
 75 76  1  0
 75 74  1  0
 76 77  1  0
 77 78  2  0
 79 78  1  0
 79 80  1  0
 81 79  2  0
 82 81  1  0
 82 76  2  0
M  ISO  4   6 101   8 101  53 100  56 100
M  END
>  <TORSDO>  (180) 
F 17

>  <SCORE>  (180) 
-12.582

>  <name>  (180) 
179

>  <ligand_id>  (180) 
179

>  <original_smiles>  (180) 
[H]OC1([H])C([H])([H])N(C(=O)C([H])(N([H])C(=O)N([H])N([H])C(=O)C([H])(C(=O)N([H])C([H])([H])C(=O)N([H])C(=O)C([H])([H])C2([H])N=C(c3c([H])c([H])c(Cl)c([H])c3[H])c3c(sc(C([H])([H])[H])c3C([H])([H])[H])-n3c(C([H])([H])[H])nnc32)[N+]([H])([H])[H])C(C([H])([H])[H])(C([H])([H])[H])C([H])([H])[H])C([H])(C(=O)N([H])C([H])([H])c2c([H])c([H])c(C3=C(C([H])([H])[H])N([H])C([H])([H])S3)c([H])c2[H])C1([H])[H]

>  <smiles>  (180) 
[H]OC1([H])C([H])([H])N(C(=O)C([H])(N([H])C(=O)N([H])N([H])C(=O)C([H])(C(=O)N([H])C([H])([H])C(=O)N([H])C(=O)C([H])([H])C2([H])N=C(c3c([H])c([H])c(Cl)c([H])c3[H])c3c(sc(C([H])([H])[H])c3C([H])([H])[H])-n3c(C([H])([H])[H])nnc32)[N+]([H])([H])[H])C(C([H])([H])[H])(C([H])([H])[H])C([H])([H])[H])C([H])(C(=O)N([H])C([H])([H])c2c([H])c([H])c(C3=C(C([H])([H])[H])N([H])C([H])([H])S3)c([H])c2[H])C1([H])[H]

$$$$
180:0:0
     RDKit          3D

 79 85  0  0  1  0  0  0  0  0999 V2000
   25.5510  -24.3750  -15.3340 N   0  0  0  0  0  0  0  0  0  0  0  0
   26.4830  -24.9180  -14.5620 C   0  0  0  0  0  0  0  0  0  0  0  0
   27.0800  -24.3290  -13.6490 O   0  0  0  0  0  0  0  0  0  0  0  0
   26.3430  -26.9620  -15.8850 C   0  0  0  0  0  3  0  0  0  0  0  0
   26.4520  -26.3460  -14.6800 N   0  0  0  0  0  0  0  0  0  0  0  0
   25.2240  -27.5730  -16.3760 N   0  0  0  0  0  0  0  0  0  0  0  0
   27.4350  -27.0400  -16.6750 N   0  0  0  0  0  0  0  0  0  0  0  0
   25.1470  -24.9720  -16.0370 H   0  0  0  0  0  0  0  0  0  0  0  0
   26.9400  -26.9030  -13.9960 H   0  0  0  0  0  0  0  0  0  0  0  0
   25.4240  -28.0950  -17.2200 H   0  0  0  0  0  0  0  0  0  0  0  0
   28.3460  -26.6550  -16.4520 H   0  0  0  0  0  0  0  0  0  0  0  0
   28.5890  -28.2350  -18.2640 C   0  0  0  0  0  1  0  0  0  0  0  0
   27.3310  -27.6870  -17.8920 O   0  0  0  0  0  0  0  0  0  0  0  0
   23.8020  -27.6860  -15.9300 C   0  0  0  0  0  2  0  0  0  0  0  0
   23.0640  -28.5820  -16.9380 C   0  0  0  0  0  0  0  0  0  0  0  0
   23.4580  -28.6030  -18.2270 N   0  0  0  0  0  4  0  0  0  0  0  0
   22.0090  -29.3580  -16.5640 N   0  0  0  0  0  0  0  0  0  0  0  0
   24.0110  -27.8650  -18.6280 H   0  0  0  0  0  0  0  0  0  0  0  0
   22.9920  -29.2270  -18.8660 H   0  0  0  0  0  0  0  0  0  0  0  0
   21.5860  -29.3760  -15.6430 H   0  0  0  0  0  0  0  0  0  0  0  0
   21.4480  -30.2790  -17.4540 O   0  0  0  0  0  0  0  0  0  0  0  0
   20.5110  -31.0530  -16.8210 C   0  0  0  0  0  0  0  0  0  0  0  0
   19.8530  -30.6820  -15.8450 O   0  0  0  0  0  0  0  0  0  0  0  0
   20.6000  -32.5440  -17.1940 C   0  0  0  0  0  2  0  0  0  0  0  0
   21.1790  -33.3580  -16.0030 C   0  0  0  0  0  3  0  0  0  0  0  0
   22.5240  -32.8620  -15.7060 N   0  0  0  0  0  0  0  0  0  0  0  0
   21.2210  -34.8670  -16.1870 C   0  0  0  0  0  0  0  0  0  0  0  0
   20.9610  -35.5470  -17.3100 N   0  0  0  0  0  0  0  0  0  0  0  0
   21.2220  -36.8730  -17.0140 N   0  0  0  0  0  0  0  0  0  0  0  0
   21.6280  -36.8890  -15.7400 C   0  0  0  0  0  0  0  0  0  0  0  0
   22.0780  -38.1320  -15.0330 C   0  0  0  0  0  1  0  0  0  0  0  0
   21.6180  -35.6640  -15.1720 N   0  0  0  0  0  0  0  0  0  0  0  0
   21.9290  -35.2600  -13.8570 C   0  0  0  0  0  0  0  0  0  0  0  0
   21.4940  -36.1150  -12.4110 S   0  0  0  0  0  0  0  0  0  0  0  0
   22.1480  -34.8480  -11.4110 C   0  0  0  0  0  0  0  0  0  0  0  0
   22.0840  -34.9780   -9.9220 C   0  0  0  0  0  1  0  0  0  0  0  0
   22.6580  -33.8090  -12.1590 C   0  0  0  0  0  0  0  0  0  0  0  0
   23.2180  -32.5580  -11.5300 C   0  0  0  0  0  1  0  0  0  0  0  0
   22.5690  -34.0730  -13.5720 C   0  0  0  0  0  0  0  0  0  0  0  0
   23.1260  -33.1570  -14.6170 C   0  0  0  0  0  0  0  0  0  0  0  0
   24.4620  -32.5630  -14.4040 C   0  0  0  0  0  0  0  0  0  0  0  0
   25.5140  -33.3500  -13.8880 C   0  0  0  0  0  3  0  0  0  0  0  0
   26.7790  -32.7740  -13.6640 C   0  0  0  0  0  3  0  0  0  0  0  0
   26.9950  -31.4150  -13.9530 C   0  0  0  0  0  0  0  0  0  0  0  0
   28.5390  -30.7020  -13.6780 Cl  0  0  0  0  0  0  0  0  0  0  0  0
   25.9500  -30.6300  -14.4650 C   0  0  0  0  0  3  0  0  0  0  0  0
   24.6860  -31.2030  -14.6950 C   0  0  0  0  0  3  0  0  0  0  0  0
   24.6570  -23.2870  -14.9530 C   0  0  0  0  0  3  0  0  0  0  0  0
   21.5670  -23.7690  -12.5510 C   0  0  0  0  0  3  0  0  0  0  0  0
   21.0640  -22.5880  -11.7060 C   0  0  0  0  0  2  0  0  0  0  0  0
   22.2980  -21.7420  -11.4730 C   0  0  0  0  0  3  0  0  0  0  0  0
   23.1770  -21.9740  -12.7030 C   0  0  0  0  0  2  0  0  0  0  0  0
   22.7450  -23.2520  -13.2790 N   0  0  0  0  0  0  0  0  0  0  0  0
   23.4170  -23.9270  -14.2460 C   0  0  0  0  0  0  0  0  0  0  0  0
   23.1020  -25.0810  -14.5580 O   0  0  0  0  0  0  0  0  0  0  0  0
   19.6370  -25.2280  -12.8640 N   0  0  0  0  0  0  0  0  0  0  0  0
   20.4150  -24.2950  -13.4230 C   0  0  0  0  0  0  0  0  0  0  0  0
   20.2070  -23.8270  -14.5450 O   0  0  0  0  0  0  0  0  0  0  0  0
   19.8880  -25.5660  -11.9450 H   0  0  0  0  0  0  0  0  0  0  0  0
   18.3850  -25.7210  -13.4230 C   0  0  0  0  0  2  0  0  0  0  0  0
   14.9820  -23.1640  -12.5150 C   0  0  0  0  0  0  0  0  0  0  0  0
   15.9800  -23.3860  -11.5440 C   0  0  0  0  0  3  0  0  0  0  0  0
   17.0820  -24.2080  -11.8350 C   0  0  0  0  0  3  0  0  0  0  0  0
   15.1000  -23.7700  -13.7830 C   0  0  0  0  0  3  0  0  0  0  0  0
   16.2050  -24.5930  -14.0750 C   0  0  0  0  0  3  0  0  0  0  0  0
   17.2020  -24.8180  -13.1020 C   0  0  0  0  0  0  0  0  0  0  0  0
   11.9020  -23.5830  -13.3820 C   0  0  0  0  0  1  0  0  0  0  0  0
   12.5150  -22.4920  -12.5260 C   0  0  0  0  0  0  0  0  0  0  0  0
   11.6690  -21.5540  -11.9710 N   0  0  0  0  0  0  0  0  0  0  0  0
   12.2500  -20.6610  -10.9750 C   0  0  0  0  0  2  0  0  0  0  0  0
   14.0320  -20.9330  -11.1650 S   0  0  0  0  0  0  0  0  0  0  0  0
   13.7980  -22.3620  -12.1610 C   0  0  0  0  0  0  0  0  0  0  0  0
   10.6580  -21.5900  -12.0700 H   0  0  0  0  0  0  0  0  0  0  0  0
   22.9910  -22.1920  -10.3190 O   0  0  0  0  0  0  0  0  0  0  0  0
   23.2260  -23.1060  -10.4430 H   0  0  0  0  0  0  0  0  0  0  0  0
   24.3040  -22.5200  -16.2750 C   0  0  1  0  0  0  0  0  0  0  0  0
   25.5770  -21.8010  -16.7830 C   0  0  0  0  0  1  0  0  0  0  0  0
   23.7940  -23.4510  -17.4050 C   0  0  0  0  0  1  0  0  0  0  0  0
   23.2360  -21.4320  -16.0390 C   0  0  0  0  0  1  0  0  0  0  0  0
  1 48  1  0
  1  2  1  0
  2  3  2  0
  4  7  1  0
  4  5  1  0
  5  2  1  0
  5  9  1  0
  6 14  1  0
  6  4  1  0
  7 11  1  0
  8  1  1  0
 10  6  1  0
 12 13  1  0
 13  7  1  0
 15 17  1  0
 15 14  1  0
 16 15  2  0
 17 20  1  0
 18 16  1  0
 19 16  1  0
 21 22  1  0
 21 17  1  0
 22 23  2  0
 24 22  1  0
 25 24  1  0
 25 26  1  0
 26 40  2  0
 27 25  1  0
 27 32  1  0
 28 29  1  0
 28 27  2  0
 29 30  2  0
 30 32  1  0
 30 31  1  0
 32 33  1  0
 33 39  2  0
 33 34  1  0
 34 35  1  0
 35 36  1  0
 37 38  1  0
 37 35  2  0
 39 37  1  0
 40 41  1  0
 40 39  1  0
 41 42  1  0
 42 43  2  0
 44 45  1  0
 44 43  1  0
 46 44  2  0
 47 46  1  0
 47 41  2  0
 48 54  1  0
 49 57  1  0
 49 50  1  0
 50 51  1  0
 51 74  1  0
 52 51  1  0
 53 52  1  0
 53 49  1  0
 54 53  1  0
 55 54  2  0
 56 59  1  0
 57 56  1  0
 58 57  2  0
 60 66  1  0
 60 56  1  0
 61 72  1  0
 61 62  1  0
 63 62  2  0
 64 61  2  0
 65 64  1  0
 65 66  2  0
 66 63  1  0
 67 68  1  0
 68 72  2  0
 68 69  1  0
 69 70  1  0
 71 70  1  0
 72 71  1  0
 73 69  1  0
 75 74  1  0
 76 79  1  1
 76 48  1  0
 77 76  1  0
 78 76  1  0
M  ISO  4   2 101   5 101  21 100  22 100
M  END
>  <TORSDO>  (181) 
F 16

>  <SCORE>  (181) 
-9.953

>  <name>  (181) 
180

>  <ligand_id>  (181) 
180

>  <original_smiles>  (181) 
[H]OC1([H])C([H])([H])N(C(=O)C([H])(N([H])C(=O)N([H])C(N([H])C([H])([H])C(N([H])[H])=[N+]([H])OC(=O)C([H])([H])C2([H])N=C(c3c([H])c([H])c(Cl)c([H])c3[H])c3c(sc(C([H])([H])[H])c3C([H])([H])[H])-n3c(C([H])([H])[H])nnc32)=[N+]([H])OC([H])([H])[H])C(C([H])([H])[H])(C([H])([H])[H])C([H])([H])[H])C([H])(C(=O)N([H])C([H])([H])c2c([H])c([H])c(C3=C(C([H])([H])[H])N([H])C([H])([H])S3)c([H])c2[H])C1([H])[H]

>  <smiles>  (181) 
[H]OC1([H])C([H])([H])N(C(=O)C([H])(N([H])C(=O)N([H])C(N([H])C([H])([H])C(N([H])[H])=[N+]([H])OC(=O)C([H])([H])C2([H])N=C(c3c([H])c([H])c(Cl)c([H])c3[H])c3c(sc(C([H])([H])[H])c3C([H])([H])[H])-n3c(C([H])([H])[H])nnc32)=[N+]([H])OC([H])([H])[H])C(C([H])([H])[H])(C([H])([H])[H])C([H])([H])[H])C([H])(C(=O)N([H])C([H])([H])c2c([H])c([H])c(C3=C(C([H])([H])[H])N([H])C([H])([H])S3)c([H])c2[H])C1([H])[H]

$$$$
181:0:0
     RDKit          3D

 84 90  0  0  1  0  0  0  0  0999 V2000
   24.0640  -27.8670  -16.4510 C   0  0  0  0  0  0  0  0  0  0  0  0
   22.7880  -27.5560  -15.9610 N   0  0  0  0  0  0  0  0  0  0  0  0
   22.7310  -26.9360  -15.1530 H   0  0  0  0  0  0  0  0  0  0  0  0
   20.6200  -27.4170  -15.9140 C   0  0  0  0  0  2  0  0  0  0  0  0
   21.6250  -27.8310  -16.6040 N   0  0  0  0  0  2  0  0  0  0  0  0
   19.3240  -27.5980  -16.3370 N   0  0  0  0  0  0  0  0  0  0  0  0
   19.0560  -28.1240  -17.1590 H   0  0  0  0  0  0  0  0  0  0  0  0
   18.5050  -27.3910  -15.7820 H   0  0  0  0  0  0  0  0  0  0  0  0
   25.0670  -27.4730  -15.6230 N   0  0  0  0  0  0  0  0  0  0  0  0
   26.2900  -27.4120  -15.8930 N   0  0  0  0  0  2  0  0  0  0  0  0
   25.9110  -24.7940  -15.3420 N   0  0  0  0  0  0  0  0  0  0  0  0
   26.8190  -25.3690  -14.5590 C   0  0  0  0  0  0  0  0  0  0  0  0
   27.2890  -24.8170  -13.5570 O   0  0  0  0  0  0  0  0  0  0  0  0
   27.1220  -26.6210  -14.9960 N   0  0  0  0  0  0  0  0  0  0  0  0
   25.6780  -25.3300  -16.1590 H   0  0  0  0  0  0  0  0  0  0  0  0
   27.9270  -27.1000  -14.6160 H   0  0  0  0  0  0  0  0  0  0  0  0
   25.0130  -23.6800  -15.0900 C   0  0  0  0  0  3  0  0  0  0  0  0
   21.9080  -23.9450  -12.6840 C   0  0  0  0  0  3  0  0  0  0  0  0
   21.4650  -22.7170  -11.8750 C   0  0  0  0  0  2  0  0  0  0  0  0
   22.7410  -21.9290  -11.6660 C   0  0  0  0  0  3  0  0  0  0  0  0
   23.6040  -22.2370  -12.8870 C   0  0  0  0  0  2  0  0  0  0  0  0
   23.1100  -23.5070  -13.4240 N   0  0  0  0  0  0  0  0  0  0  0  0
   23.7470  -24.2390  -14.3680 C   0  0  0  0  0  0  0  0  0  0  0  0
   23.3520  -25.3780  -14.6530 O   0  0  0  0  0  0  0  0  0  0  0  0
   19.9260  -25.3360  -12.9670 N   0  0  0  0  0  0  0  0  0  0  0  0
   20.7310  -24.4360  -13.5410 C   0  0  0  0  0  0  0  0  0  0  0  0
   20.5360  -23.9820  -14.6700 O   0  0  0  0  0  0  0  0  0  0  0  0
   20.1620  -25.6610  -12.0380 H   0  0  0  0  0  0  0  0  0  0  0  0
   18.6510  -25.7860  -13.5110 C   0  0  0  0  0  2  0  0  0  0  0  0
   15.3400  -23.1420  -12.5500 C   0  0  0  0  0  0  0  0  0  0  0  0
   16.3650  -23.3620  -11.6070 C   0  0  0  0  0  3  0  0  0  0  0  0
   17.4380  -24.2160  -11.9140 C   0  0  0  0  0  3  0  0  0  0  0  0
   15.4010  -23.7790  -13.8070 C   0  0  0  0  0  3  0  0  0  0  0  0
   16.4760  -24.6340  -14.1130 C   0  0  0  0  0  3  0  0  0  0  0  0
   17.4990  -24.8560  -13.1690 C   0  0  0  0  0  0  0  0  0  0  0  0
   12.2120  -23.5570  -13.2200 C   0  0  0  0  0  1  0  0  0  0  0  0
   12.8850  -22.4320  -12.4600 C   0  0  0  0  0  0  0  0  0  0  0  0
   12.0850  -21.4530  -11.9080 N   0  0  0  0  0  0  0  0  0  0  0  0
   12.7330  -20.5160  -10.9980 C   0  0  0  0  0  2  0  0  0  0  0  0
   14.4980  -20.8280  -11.2720 S   0  0  0  0  0  0  0  0  0  0  0  0
   14.1890  -22.3030  -12.1750 C   0  0  0  0  0  0  0  0  0  0  0  0
   11.0700  -21.4810  -11.9430 H   0  0  0  0  0  0  0  0  0  0  0  0
   23.4140  -22.3810  -10.5020 O   0  0  0  0  0  0  0  0  0  0  0  0
   23.6050  -23.3090  -10.6040 H   0  0  0  0  0  0  0  0  0  0  0  0
   24.7040  -23.0560  -16.5020 C   0  0  1  0  0  0  0  0  0  0  0  0
   26.0030  -22.4370  -17.0660 C   0  0  0  0  0  1  0  0  0  0  0  0
   24.1830  -24.0890  -17.5330 C   0  0  0  0  0  1  0  0  0  0  0  0
   23.6670  -21.9210  -16.4070 C   0  0  0  0  0  1  0  0  0  0  0  0
   23.3990  -27.8110  -18.9920 C   0  0  0  0  0  1  0  0  0  0  0  0
   24.2170  -28.4820  -17.8590 C   0  0  0  0  0  3  0  0  0  0  0  0
   20.6550  -31.2330  -16.7000 C   0  0  0  0  0  0  0  0  0  0  0  0
   19.8650  -30.6260  -15.9750 O   0  0  0  0  0  0  0  0  0  0  0  0
   23.0520  -30.8570  -17.5900 C   0  0  0  0  0  0  0  0  0  0  0  0
   23.4430  -32.1280  -17.7010 N   0  0  0  0  0  4  0  0  0  0  0  0
   21.7900  -30.4810  -17.2260 N   0  0  0  0  0  0  0  0  0  0  0  0
   24.0610  -29.9690  -17.8090 N   0  0  0  0  0  0  0  0  0  0  0  0
   23.0000  -32.8040  -17.0810 H   0  0  0  0  0  0  0  0  0  0  0  0
   24.3440  -32.3960  -18.0720 H   0  0  0  0  0  0  0  0  0  0  0  0
   21.7000  -29.4780  -17.1960 H   0  0  0  0  0  0  0  0  0  0  0  0
   24.9440  -30.4040  -18.0380 H   0  0  0  0  0  0  0  0  0  0  0  0
   20.5780  -32.7640  -16.8250 C   0  0  0  0  0  2  0  0  0  0  0  0
   21.0790  -33.4200  -15.5130 C   0  0  0  0  0  3  0  0  0  0  0  0
   22.4520  -32.9730  -15.3000 N   0  0  0  0  0  0  0  0  0  0  0  0
   21.0320  -34.9340  -15.4880 C   0  0  0  0  0  0  0  0  0  0  0  0
   20.7030  -35.7390  -16.5040 N   0  0  0  0  0  0  0  0  0  0  0  0
   20.9000  -37.0240  -16.0370 N   0  0  0  0  0  0  0  0  0  0  0  0
   21.3420  -36.8920  -14.7810 C   0  0  0  0  0  0  0  0  0  0  0  0
   21.7420  -38.0540  -13.9220 C   0  0  0  0  0  1  0  0  0  0  0  0
   21.4140  -35.6040  -14.3830 N   0  0  0  0  0  0  0  0  0  0  0  0
   21.7840  -35.0440  -13.1400 C   0  0  0  0  0  0  0  0  0  0  0  0
   21.3420  -35.6680  -11.5820 S   0  0  0  0  0  0  0  0  0  0  0  0
   22.0930  -34.3180  -10.7780 C   0  0  0  0  0  0  0  0  0  0  0  0
   22.0640  -34.2420   -9.2840 C   0  0  0  0  0  1  0  0  0  0  0  0
   22.6350  -33.4190  -11.6700 C   0  0  0  0  0  0  0  0  0  0  0  0
   23.2790  -32.1280  -11.2290 C   0  0  0  0  0  1  0  0  0  0  0  0
   22.4920  -33.8670  -13.0290 C   0  0  0  0  0  0  0  0  0  0  0  0
   23.0650  -33.1330  -14.1940 C   0  0  0  0  0  0  0  0  0  0  0  0
   24.4330  -32.5830  -14.1020 C   0  0  0  0  0  0  0  0  0  0  0  0
   25.4750  -33.3740  -13.5720 C   0  0  0  0  0  3  0  0  0  0  0  0
   26.7730  -32.8450  -13.4570 C   0  0  0  0  0  3  0  0  0  0  0  0
   27.0360  -31.5270  -13.8760 C   0  0  0  0  0  0  0  0  0  0  0  0
   28.6240  -30.8770  -13.7290 Cl  0  0  0  0  0  0  0  0  0  0  0  0
   26.0020  -30.7390  -14.4120 C   0  0  0  0  0  3  0  0  0  0  0  0
   24.7030  -31.2650  -14.5290 C   0  0  0  0  0  3  0  0  0  0  0  0
  1  2  1  0
  1  9  2  0
  2  3  1  0
  5  2  1  0
  5  4  1  0
  6  4  1  0
  6  8  1  0
  7  6  1  0
 10  9  1  0
 10 14  1  0
 11 17  1  0
 11 12  1  0
 12 13  2  0
 14 16  1  0
 14 12  1  0
 15 11  1  0
 17 23  1  0
 18 26  1  0
 18 19  1  0
 19 20  1  0
 20 43  1  0
 21 20  1  0
 22 21  1  0
 22 18  1  0
 23 22  1  0
 24 23  2  0
 25 28  1  0
 26 25  1  0
 27 26  2  0
 29 35  1  0
 29 25  1  0
 30 41  1  0
 30 31  1  0
 32 31  2  0
 33 30  2  0
 34 33  1  0
 34 35  2  0
 35 32  1  0
 36 37  1  0
 37 41  2  0
 37 38  1  0
 38 39  1  0
 40 39  1  0
 41 40  1  0
 42 38  1  0
 44 43  1  0
 45 48  1  1
 45 17  1  0
 46 45  1  0
 47 45  1  0
 50 49  1  0
 50 56  1  0
 50  1  1  0
 51 52  2  0
 53 55  1  0
 54 53  2  0
 54 57  1  0
 55 59  1  0
 55 51  1  0
 56 53  1  0
 58 54  1  0
 60 56  1  0
 61 51  1  0
 62 61  1  0
 62 64  1  0
 62 63  1  0
 63 77  2  0
 64 69  1  0
 65 66  1  0
 65 64  2  0
 66 67  2  0
 67 69  1  0
 67 68  1  0
 69 70  1  0
 70 76  2  0
 70 71  1  0
 71 72  1  0
 72 73  1  0
 74 75  1  0
 74 72  2  0
 76 74  1  0
 77 78  1  0
 77 76  1  0
 78 79  1  0
 79 80  2  0
 81 82  1  0
 81 80  1  0
 83 81  2  0
 84 83  1  0
 84 78  2  0
M  ISO  4  12 101  14 101  51 100  55 100
M  END
>  <TORSDO>  (182) 
F 16

>  <SCORE>  (182) 
-10.249

>  <name>  (182) 
181

>  <ligand_id>  (182) 
181

>  <original_smiles>  (182) 
[H]OC1([H])C([H])([H])N(C(=O)C([H])(N([H])C(=O)N([H])N=NC(=[N+]([H])N=C([H])N([H])[H])C([H])([N+]([H])=C(N([H])[H])N([H])C(=O)C([H])([H])C2([H])N=C(c3c([H])c([H])c(Cl)c([H])c3[H])c3c(sc(C([H])([H])[H])c3C([H])([H])[H])-n3c(C([H])([H])[H])nnc32)C([H])([H])[H])C(C([H])([H])[H])(C([H])([H])[H])C([H])([H])[H])C([H])(C(=O)N([H])C([H])([H])c2c([H])c([H])c(C3=C(C([H])([H])[H])N([H])C([H])([H])S3)c([H])c2[H])C1([H])[H]

>  <smiles>  (182) 
[H]OC1([H])C([H])([H])N(C(=O)C([H])(N([H])C(=O)N([H])N=NC(=[N+]([H])N=C([H])N([H])[H])C([H])([N+]([H])=C(N([H])[H])N([H])C(=O)C([H])([H])C2([H])N=C(c3c([H])c([H])c(Cl)c([H])c3[H])c3c(sc(C([H])([H])[H])c3C([H])([H])[H])-n3c(C([H])([H])[H])nnc32)C([H])([H])[H])C(C([H])([H])[H])(C([H])([H])[H])C([H])([H])[H])C([H])(C(=O)N([H])C([H])([H])c2c([H])c([H])c(C3=C(C([H])([H])[H])N([H])C([H])([H])S3)c([H])c2[H])C1([H])[H]

$$$$
182:0:0
     RDKit          3D

 76 83  0  0  1  0  0  0  0  0999 V2000
   25.6590  -27.4260  -15.8710 C   0  0  0  0  0  2  0  0  0  0  0  0
   22.4920  -27.6980  -14.1310 C   0  0  0  0  0  0  0  0  0  0  0  0
   22.0720  -28.1080  -15.3690 C   0  0  0  0  0  0  0  0  0  0  0  0
   24.2280  -27.7040  -15.4260 C   0  0  0  0  0  0  0  0  0  0  0  0
   21.6910  -27.4960  -12.8810 C   0  0  0  0  0  1  0  0  0  0  0  0
   20.6730  -28.3990  -15.7890 C   0  0  0  0  0  1  0  0  0  0  0  0
   23.8520  -27.4520  -14.1680 N   0  0  0  0  0  0  0  0  0  0  0  0
   23.2010  -28.1990  -16.1960 N   0  0  0  0  0  0  0  0  0  0  0  0
   23.1800  -28.6780  -17.6020 C   0  0  0  0  0  2  0  0  0  0  0  0
   23.1800  -30.2420  -17.7970 C   0  0  0  0  0  2  0  0  0  0  0  0
   21.1580  -31.7090  -17.6250 C   0  0  0  0  0  0  0  0  0  0  0  0
   20.3470  -31.2040  -16.8560 O   0  0  0  0  0  0  0  0  0  0  0  0
   22.0020  -30.9500  -18.3660 N   0  0  0  0  0  0  0  0  0  0  0  0
   22.2610  -31.4130  -19.2270 H   0  0  0  0  0  0  0  0  0  0  0  0
   21.3260  -33.2460  -17.6210 C   0  0  0  0  0  2  0  0  0  0  0  0
   21.7320  -33.7690  -16.2050 C   0  0  0  0  0  3  0  0  0  0  0  0
   23.0400  -33.2060  -15.8550 N   0  0  0  0  0  0  0  0  0  0  0  0
   21.7810  -35.2840  -16.0430 C   0  0  0  0  0  0  0  0  0  0  0  0
   21.6450  -36.1990  -17.0110 N   0  0  0  0  0  0  0  0  0  0  0  0
   21.8580  -37.4240  -16.4040 N   0  0  0  0  0  0  0  0  0  0  0  0
   22.1150  -37.1550  -15.1200 C   0  0  0  0  0  0  0  0  0  0  0  0
   22.4690  -38.2090  -14.1150 C   0  0  0  0  0  1  0  0  0  0  0  0
   22.0480  -35.8350  -14.8390 N   0  0  0  0  0  0  0  0  0  0  0  0
   22.2040  -35.1510  -13.6150 C   0  0  0  0  0  0  0  0  0  0  0  0
   21.6010  -35.6840  -12.0790 S   0  0  0  0  0  0  0  0  0  0  0  0
   22.1420  -34.2200  -11.3060 C   0  0  0  0  0  0  0  0  0  0  0  0
   21.9030  -34.0290   -9.8440 C   0  0  0  0  0  1  0  0  0  0  0  0
   22.7390  -33.3560  -12.1980 C   0  0  0  0  0  0  0  0  0  0  0  0
   23.2330  -31.9890  -11.7960 C   0  0  0  0  0  1  0  0  0  0  0  0
   22.8130  -33.9180  -13.5210 C   0  0  0  0  0  0  0  0  0  0  0  0
   23.4980  -33.2420  -14.6630 C   0  0  0  0  0  0  0  0  0  0  0  0
   24.8100  -32.6040  -14.4200 C   0  0  0  0  0  0  0  0  0  0  0  0
   25.8200  -33.2900  -13.7140 C   0  0  0  0  0  3  0  0  0  0  0  0
   27.0610  -32.6680  -13.4670 C   0  0  0  0  0  3  0  0  0  0  0  0
   27.3010  -31.3640  -13.9350 C   0  0  0  0  0  0  0  0  0  0  0  0
   28.8070  -30.5780  -13.6490 Cl  0  0  0  0  0  0  0  0  0  0  0  0
   26.2950  -30.6800  -14.6210 C   0  0  0  0  0  3  0  0  0  0  0  0
   25.0470  -31.2840  -14.8440 C   0  0  0  0  0  3  0  0  0  0  0  0
   25.6960  -24.7050  -15.5530 N   0  0  0  0  0  0  0  0  0  0  0  0
   26.3260  -25.3330  -14.5730 C   0  0  0  0  0  0  0  0  0  0  0  0
   26.7150  -24.7690  -13.5430 O   0  0  0  0  0  0  0  0  0  0  0  0
   26.4150  -26.6540  -14.8310 N   0  0  0  0  0  0  0  0  0  0  0  0
   25.5300  -25.2570  -16.3780 H   0  0  0  0  0  0  0  0  0  0  0  0
   26.8380  -27.2120  -14.1030 H   0  0  0  0  0  0  0  0  0  0  0  0
   24.7610  -23.6000  -15.4420 C   0  0  0  0  0  3  0  0  0  0  0  0
   21.6580  -23.8430  -13.0280 C   0  0  0  0  0  3  0  0  0  0  0  0
   21.2410  -22.6190  -12.2020 C   0  0  0  0  0  2  0  0  0  0  0  0
   22.5280  -21.8480  -11.9890 C   0  0  0  0  0  3  0  0  0  0  0  0
   23.3870  -22.1620  -13.2140 C   0  0  0  0  0  2  0  0  0  0  0  0
   22.8650  -23.4160  -13.7680 N   0  0  0  0  0  0  0  0  0  0  0  0
   23.4770  -24.1350  -14.7370 C   0  0  0  0  0  0  0  0  0  0  0  0
   23.0410  -25.2330  -15.0790 O   0  0  0  0  0  0  0  0  0  0  0  0
   19.6720  -25.2270  -13.3210 N   0  0  0  0  0  0  0  0  0  0  0  0
   20.4670  -24.3090  -13.8840 C   0  0  0  0  0  0  0  0  0  0  0  0
   20.2420  -23.8000  -14.9840 O   0  0  0  0  0  0  0  0  0  0  0  0
   19.9350  -25.5900  -12.4170 H   0  0  0  0  0  0  0  0  0  0  0  0
   18.3920  -25.6700  -13.8610 C   0  0  0  0  0  2  0  0  0  0  0  0
   15.0630  -23.1390  -12.6490 C   0  0  0  0  0  0  0  0  0  0  0  0
   16.1250  -23.3890  -11.7560 C   0  0  0  0  0  3  0  0  0  0  0  0
   17.2040  -24.2010  -12.1480 C   0  0  0  0  0  3  0  0  0  0  0  0
   15.0930  -23.7100  -13.9380 C   0  0  0  0  0  3  0  0  0  0  0  0
   16.1730  -24.5240  -14.3300 C   0  0  0  0  0  3  0  0  0  0  0  0
   17.2350  -24.7760  -13.4370 C   0  0  0  0  0  0  0  0  0  0  0  0
   11.9180  -23.6260  -13.1820 C   0  0  0  0  0  1  0  0  0  0  0  0
   12.5970  -22.5080  -12.4170 C   0  0  0  0  0  0  0  0  0  0  0  0
   11.7950  -21.5750  -11.7910 N   0  0  0  0  0  0  0  0  0  0  0  0
   12.4620  -20.6480  -10.8850 C   0  0  0  0  0  2  0  0  0  0  0  0
   14.2190  -20.8970  -11.2540 S   0  0  0  0  0  0  0  0  0  0  0  0
   13.9090  -22.3480  -12.1900 C   0  0  0  0  0  0  0  0  0  0  0  0
   10.7820  -21.6300  -11.7790 H   0  0  0  0  0  0  0  0  0  0  0  0
   23.1930  -22.3140  -10.8260 O   0  0  0  0  0  0  0  0  0  0  0  0
   23.3670  -23.2440  -10.9300 H   0  0  0  0  0  0  0  0  0  0  0  0
   24.4980  -23.1010  -16.9070 C   0  0  1  0  0  0  0  0  0  0  0  0
   25.8050  -22.4890  -17.4640 C   0  0  0  0  0  1  0  0  0  0  0  0
   24.0490  -24.2250  -17.8790 C   0  0  0  0  0  1  0  0  0  0  0  0
   23.4270  -21.9930  -16.9450 C   0  0  0  0  0  1  0  0  0  0  0  0
  1  4  1  0
  1 42  1  0
  2  5  1  0
  3  2  2  0
  4  7  2  0
  6  3  1  0
  7  2  1  0
  8  4  1  0
  8  3  1  0
  9  8  1  0
 10  9  1  0
 11 15  1  0
 11 12  2  0
 13 10  1  0
 13 11  1  0
 14 13  1  0
 16 15  1  0
 16 18  1  0
 16 17  1  0
 17 31  2  0
 18 23  1  0
 19 20  1  0
 19 18  2  0
 20 21  2  0
 21 23  1  0
 21 22  1  0
 23 24  1  0
 24 30  2  0
 24 25  1  0
 25 26  1  0
 26 27  1  0
 28 29  1  0
 28 26  2  0
 30 28  1  0
 31 32  1  0
 31 30  1  0
 32 33  1  0
 33 34  2  0
 35 36  1  0
 35 34  1  0
 37 35  2  0
 38 37  1  0
 38 32  2  0
 39 45  1  0
 39 40  1  0
 40 41  2  0
 42 40  1  0
 42 44  1  0
 43 39  1  0
 45 51  1  0
 46 54  1  0
 46 47  1  0
 47 48  1  0
 48 71  1  0
 49 48  1  0
 50 49  1  0
 50 46  1  0
 51 50  1  0
 52 51  2  0
 53 56  1  0
 54 53  1  0
 55 54  2  0
 57 63  1  0
 57 53  1  0
 58 69  1  0
 58 59  1  0
 60 59  2  0
 61 58  2  0
 62 61  1  0
 62 63  2  0
 63 60  1  0
 64 65  1  0
 65 69  2  0
 65 66  1  0
 66 70  1  0
 66 67  1  0
 68 67  1  0
 69 68  1  0
 72 71  1  0
 73 45  1  0
 73 74  1  6
 75 73  1  0
 76 73  1  0
M  ISO  4  11 100  13 100  40 101  42 101
M  END
>  <TORSDO>  (183) 
F 16

>  <SCORE>  (183) 
-11.380

>  <name>  (183) 
182

>  <ligand_id>  (183) 
182

>  <original_smiles>  (183) 
[H]OC1([H])C([H])([H])N(C(=O)C([H])(N([H])C(=O)N([H])C([H])([H])c2nc(C([H])([H])[H])c(C([H])([H])[H])n2C([H])([H])C([H])([H])N([H])C(=O)C([H])([H])C2([H])N=C(c3c([H])c([H])c(Cl)c([H])c3[H])c3c(sc(C([H])([H])[H])c3C([H])([H])[H])-n3c(C([H])([H])[H])nnc32)C(C([H])([H])[H])(C([H])([H])[H])C([H])([H])[H])C([H])(C(=O)N([H])C([H])([H])c2c([H])c([H])c(C3=C(C([H])([H])[H])N([H])C([H])([H])S3)c([H])c2[H])C1([H])[H]

>  <smiles>  (183) 
[H]OC1([H])C([H])([H])N(C(=O)C([H])(N([H])C(=O)N([H])C([H])([H])c2nc(C([H])([H])[H])c(C([H])([H])[H])n2C([H])([H])C([H])([H])N([H])C(=O)C([H])([H])C2([H])N=C(c3c([H])c([H])c(Cl)c([H])c3[H])c3c(sc(C([H])([H])[H])c3C([H])([H])[H])-n3c(C([H])([H])[H])nnc32)C(C([H])([H])[H])(C([H])([H])[H])C([H])([H])[H])C([H])(C(=O)N([H])C([H])([H])c2c([H])c([H])c(C3=C(C([H])([H])[H])N([H])C([H])([H])S3)c([H])c2[H])C1([H])[H]

$$$$
183:0:0
     RDKit          3D

 77 84  0  0  1  0  0  0  0  0999 V2000
   24.4050  -27.4570  -15.1160 C   0  0  0  0  0  3  0  0  0  0  0  0
   23.2700  -28.1510  -14.8090 C   0  0  0  0  0  3  0  0  0  0  0  0
   24.4730  -27.1080  -16.4970 C   0  0  0  0  0  0  0  0  0  0  0  0
   23.4620  -27.6480  -17.2810 C   0  0  0  0  0  0  0  0  0  0  0  0
   22.2590  -28.3790  -16.2120 S   0  0  0  0  0  0  0  0  0  0  0  0
   24.5200  -24.4210  -17.3280 N   0  0  0  0  0  0  0  0  0  0  0  0
   25.5410  -24.9850  -16.6970 C   0  0  0  0  0  0  0  0  0  0  0  0
   26.2570  -24.3990  -15.8700 O   0  0  0  0  0  0  0  0  0  0  0  0
   25.5670  -26.3050  -16.9420 N   0  0  0  0  0  0  0  0  0  0  0  0
   24.0540  -25.0470  -17.9700 H   0  0  0  0  0  0  0  0  0  0  0  0
   26.4660  -26.7220  -16.7350 H   0  0  0  0  0  0  0  0  0  0  0  0
   23.6290  -23.3860  -16.8200 C   0  0  0  0  0  3  0  0  0  0  0  0
   20.9120  -24.3780  -14.1460 C   0  0  0  0  0  3  0  0  0  0  0  0
   20.6680  -23.4790  -12.9260 C   0  0  0  0  0  2  0  0  0  0  0  0
   22.0030  -22.8050  -12.6880 C   0  0  0  0  0  3  0  0  0  0  0  0
   22.6500  -22.7110  -14.0730 C   0  0  0  0  0  2  0  0  0  0  0  0
   22.0070  -23.7330  -14.8960 N   0  0  0  0  0  0  0  0  0  0  0  0
   22.4300  -24.1040  -16.1280 C   0  0  0  0  0  0  0  0  0  0  0  0
   21.8820  -25.0290  -16.7270 O   0  0  0  0  0  0  0  0  0  0  0  0
   18.7790  -25.5200  -14.4270 N   0  0  0  0  0  0  0  0  0  0  0  0
   19.5810  -24.5630  -14.9020 C   0  0  0  0  0  0  0  0  0  0  0  0
   19.2710  -23.8190  -15.8370 O   0  0  0  0  0  0  0  0  0  0  0  0
   19.1210  -26.0900  -13.6650 H   0  0  0  0  0  0  0  0  0  0  0  0
   17.4060  -25.7470  -14.8620 C   0  0  0  0  0  2  0  0  0  0  0  0
   14.5460  -23.0770  -12.9520 C   0  0  0  0  0  0  0  0  0  0  0  0
   15.6680  -23.5390  -12.2380 C   0  0  0  0  0  3  0  0  0  0  0  0
   16.5970  -24.3980  -12.8500 C   0  0  0  0  0  3  0  0  0  0  0  0
   14.3600  -23.4870  -14.2900 C   0  0  0  0  0  3  0  0  0  0  0  0
   15.2890  -24.3480  -14.9030 C   0  0  0  0  0  3  0  0  0  0  0  0
   16.4130  -24.8100  -14.1890 C   0  0  0  0  0  0  0  0  0  0  0  0
   11.3270  -23.1540  -13.1500 C   0  0  0  0  0  1  0  0  0  0  0  0
   12.2140  -22.2260  -12.3430 C   0  0  0  0  0  0  0  0  0  0  0  0
   11.6010  -21.3040  -11.5210 N   0  0  0  0  0  0  0  0  0  0  0  0
   12.4700  -20.5860  -10.5910 C   0  0  0  0  0  2  0  0  0  0  0  0
   14.1320  -20.9650  -11.2000 S   0  0  0  0  0  0  0  0  0  0  0  0
   13.5490  -22.2370  -12.2620 C   0  0  0  0  0  0  0  0  0  0  0  0
   10.5950  -21.2550  -11.3880 H   0  0  0  0  0  0  0  0  0  0  0  0
   22.8250  -23.5980  -11.8430 O   0  0  0  0  0  0  0  0  0  0  0  0
   22.8670  -24.4820  -12.2000 H   0  0  0  0  0  0  0  0  0  0  0  0
   23.1690  -22.5330  -18.0550 C   0  0  1  0  0  0  0  0  0  0  0  0
   24.3630  -21.6520  -18.4920 C   0  0  0  0  0  1  0  0  0  0  0  0
   22.6830  -23.3870  -19.2580 C   0  0  0  0  0  1  0  0  0  0  0  0
   22.0350  -21.5700  -17.6680 C   0  0  0  0  0  1  0  0  0  0  0  0
   23.2920  -27.7270  -18.7920 C   0  0  0  0  0  2  0  0  0  0  0  0
   21.5910  -29.3930  -19.7110 C   0  0  0  0  0  0  0  0  0  0  0  0
   21.9610  -28.1770  -19.2510 N   0  0  0  0  0  0  0  0  0  0  0  0
   21.0450  -29.5450  -20.8120 O   0  0  0  0  0  0  0  0  0  0  0  0
   21.4170  -27.3950  -19.5750 H   0  0  0  0  0  0  0  0  0  0  0  0
   21.7350  -30.6210  -18.7590 C   0  0  0  0  0  0  0  0  0  0  0  0
   22.8600  -30.7800  -18.2750 O   0  0  0  0  0  0  0  0  0  0  0  0
   20.6760  -31.4520  -18.5620 N   0  0  0  0  0  2  0  0  0  0  0  0
   20.5200  -32.0720  -17.3690 C   0  0  0  0  0  0  0  0  0  0  0  0
   20.1980  -31.5150  -16.3200 O   0  0  0  0  0  0  0  0  0  0  0  0
   20.8510  -33.5760  -17.3820 C   0  0  0  0  0  2  0  0  0  0  0  0
   21.4120  -34.0770  -16.0270 C   0  0  0  0  0  3  0  0  0  0  0  0
   22.7170  -33.4650  -15.7860 N   0  0  0  0  0  0  0  0  0  0  0  0
   21.5360  -35.5780  -15.9250 C   0  0  0  0  0  0  0  0  0  0  0  0
   21.3690  -36.4730  -16.9040 N   0  0  0  0  0  0  0  0  0  0  0  0
   21.6700  -37.6960  -16.3460 N   0  0  0  0  0  0  0  0  0  0  0  0
   22.0120  -37.4450  -15.0790 C   0  0  0  0  0  0  0  0  0  0  0  0
   22.4830  -38.4970  -14.1260 C   0  0  0  0  0  1  0  0  0  0  0  0
   21.9210  -36.1370  -14.7580 N   0  0  0  0  0  0  0  0  0  0  0  0
   22.1410  -35.4700  -13.5400 C   0  0  0  0  0  0  0  0  0  0  0  0
   21.6640  -36.0550  -11.9780 S   0  0  0  0  0  0  0  0  0  0  0  0
   22.2010  -34.5870  -11.2180 C   0  0  0  0  0  0  0  0  0  0  0  0
   22.0730  -34.4390   -9.7380 C   0  0  0  0  0  1  0  0  0  0  0  0
   22.6970  -33.6800  -12.1240 C   0  0  0  0  0  0  0  0  0  0  0  0
   23.1450  -32.2990  -11.7180 C   0  0  0  0  0  1  0  0  0  0  0  0
   22.7010  -34.2130  -13.4620 C   0  0  0  0  0  0  0  0  0  0  0  0
   23.2760  -33.4840  -14.6370 C   0  0  0  0  0  0  0  0  0  0  0  0
   24.5770  -32.7930  -14.4920 C   0  0  0  0  0  0  0  0  0  0  0  0
   25.5880  -33.3350  -13.6710 C   0  0  0  0  0  3  0  0  0  0  0  0
   26.8060  -32.6390  -13.5120 C   0  0  0  0  0  3  0  0  0  0  0  0
   27.0180  -31.4120  -14.1680 C   0  0  0  0  0  0  0  0  0  0  0  0
   28.4880  -30.5480  -13.9560 Cl  0  0  0  0  0  0  0  0  0  0  0  0
   26.0240  -30.8910  -15.0120 C   0  0  0  0  0  3  0  0  0  0  0  0
   24.8140  -31.5820  -15.1710 C   0  0  0  0  0  3  0  0  0  0  0  0
  1  2  2  0
  3  1  1  0
  4  3  2  0
  4  5  1  0
  5  2  1  0
  6 12  1  0
  6  7  1  0
  7  8  2  0
  9 11  1  0
  9  7  1  0
  9  3  1  0
 10  6  1  0
 12 18  1  0
 13 21  1  0
 13 14  1  0
 14 15  1  0
 15 38  1  0
 16 15  1  0
 17 13  1  0
 17 16  1  0
 18 17  1  0
 19 18  2  0
 20 23  1  0
 21 20  1  0
 22 21  2  0
 24 20  1  0
 24 30  1  0
 25 36  1  0
 25 26  1  0
 27 26  2  0
 28 25  2  0
 29 28  1  0
 29 30  2  0
 30 27  1  0
 31 32  1  0
 32 36  2  0
 32 33  1  0
 33 37  1  0
 33 34  1  0
 35 34  1  0
 36 35  1  0
 39 38  1  0
 40 43  1  1
 40 12  1  0
 41 40  1  0
 42 40  1  0
 44  4  1  0
 45 46  1  0
 45 49  1  0
 46 44  1  0
 47 45  2  0
 48 46  1  0
 49 51  1  0
 49 50  2  0
 51 52  1  0
 52 53  2  0
 54 52  1  0
 55 54  1  0
 55 57  1  0
 55 56  1  0
 56 70  2  0
 57 62  1  0
 58 59  1  0
 58 57  2  0
 59 60  2  0
 60 62  1  0
 60 61  1  0
 62 63  1  0
 63 69  2  0
 63 64  1  0
 64 65  1  0
 65 66  1  0
 67 68  1  0
 67 65  2  0
 69 67  1  0
 70 71  1  0
 70 69  1  0
 71 72  1  0
 72 73  2  0
 74 75  1  0
 74 73  1  0
 76 74  2  0
 77 76  1  0
 77 71  2  0
M  ISO  4   7 101   9 101  51 100  52 100
M  END
>  <TORSDO>  (184) 
F 17

>  <SCORE>  (184) 
-9.550

>  <name>  (184) 
183

>  <ligand_id>  (184) 
183

>  <original_smiles>  (184) 
[H]OC1([H])C([H])([H])N(C(=O)C([H])(N([H])C(=O)N([H])c2c(C([H])([H])N([H])C(=O)C(=O)[N-]C(=O)C([H])([H])C3([H])N=C(c4c([H])c([H])c(Cl)c([H])c4[H])c4c(sc(C([H])([H])[H])c4C([H])([H])[H])-n4c(C([H])([H])[H])nnc43)sc([H])c2[H])C(C([H])([H])[H])(C([H])([H])[H])C([H])([H])[H])C([H])(C(=O)N([H])C([H])([H])c2c([H])c([H])c(C3=C(C([H])([H])[H])N([H])C([H])([H])S3)c([H])c2[H])C1([H])[H]

>  <smiles>  (184) 
[H]OC1([H])C([H])([H])N(C(=O)C([H])(N([H])C(=O)N([H])c2c(C([H])([H])N([H])C(=O)C(=O)[N-]C(=O)C([H])([H])C3([H])N=C(c4c([H])c([H])c(Cl)c([H])c4[H])c4c(sc(C([H])([H])[H])c4C([H])([H])[H])-n4c(C([H])([H])[H])nnc43)sc([H])c2[H])C(C([H])([H])[H])(C([H])([H])[H])C([H])([H])[H])C([H])(C(=O)N([H])C([H])([H])c2c([H])c([H])c(C3=C(C([H])([H])[H])N([H])C([H])([H])S3)c([H])c2[H])C1([H])[H]

$$$$
184:0:0
     RDKit          3D

 78 84  0  0  1  0  0  0  0  0999 V2000
   25.8370  -24.2550  -15.5420 N   0  0  0  0  0  0  0  0  0  0  0  0
   26.7140  -24.8860  -14.7740 C   0  0  0  0  0  0  0  0  0  0  0  0
   27.3220  -24.3320  -13.8430 O   0  0  0  0  0  0  0  0  0  0  0  0
   25.7060  -27.0260  -15.2090 C   0  0  0  0  0  0  0  0  0  0  0  0
   26.7790  -26.1820  -15.1760 N   0  0  0  0  0  0  0  0  0  0  0  0
   25.4960  -27.6800  -16.3800 N   0  0  0  0  0  0  0  0  0  0  0  0
   24.9810  -27.2220  -14.2320 O   0  0  0  0  0  0  0  0  0  0  0  0
   25.5240  -24.7600  -16.3560 H   0  0  0  0  0  0  0  0  0  0  0  0
   27.4610  -26.3210  -15.9060 H   0  0  0  0  0  0  0  0  0  0  0  0
   25.9390  -27.5360  -17.2780 H   0  0  0  0  0  0  0  0  0  0  0  0
   24.2810  -29.6940  -17.0830 C   0  0  0  0  0  0  0  0  0  0  0  0
   25.4720  -30.1870  -17.4360 N   0  0  0  0  0  4  0  0  0  0  0  0
   24.2770  -28.4360  -16.5480 N   0  0  0  0  0  0  0  0  0  0  0  0
   23.1950  -30.5070  -17.2930 N   0  0  0  0  0  0  0  0  0  0  0  0
   26.3110  -29.6690  -17.2340 H   0  0  0  0  0  0  0  0  0  0  0  0
   25.5790  -31.0900  -17.8710 H   0  0  0  0  0  0  0  0  0  0  0  0
   23.4340  -28.0190  -16.1700 H   0  0  0  0  0  0  0  0  0  0  0  0
   23.3420  -31.4530  -17.6070 H   0  0  0  0  0  0  0  0  0  0  0  0
   20.8990  -31.0880  -16.7990 C   0  0  0  0  0  0  0  0  0  0  0  0
   19.9730  -30.7480  -16.0720 O   0  0  0  0  0  0  0  0  0  0  0  0
   21.8490  -30.1500  -17.0710 N   0  0  0  0  0  0  0  0  0  0  0  0
   21.7960  -29.1820  -16.7930 H   0  0  0  0  0  0  0  0  0  0  0  0
   20.9880  -32.5870  -17.2110 C   0  0  0  0  0  2  0  0  0  0  0  0
   21.3830  -33.4610  -15.9870 C   0  0  0  0  0  3  0  0  0  0  0  0
   22.7240  -33.0330  -15.6090 N   0  0  0  0  0  0  0  0  0  0  0  0
   21.3680  -34.9770  -16.1620 C   0  0  0  0  0  0  0  0  0  0  0  0
   21.1340  -35.6570  -17.2910 N   0  0  0  0  0  0  0  0  0  0  0  0
   21.3350  -36.9910  -16.9750 N   0  0  0  0  0  0  0  0  0  0  0  0
   21.6770  -37.0140  -15.6830 C   0  0  0  0  0  0  0  0  0  0  0  0
   22.0510  -38.2670  -14.9480 C   0  0  0  0  0  1  0  0  0  0  0  0
   21.6770  -35.7840  -15.1220 N   0  0  0  0  0  0  0  0  0  0  0  0
   21.9300  -35.3870  -13.7910 C   0  0  0  0  0  0  0  0  0  0  0  0
   21.3970  -36.2230  -12.3670 S   0  0  0  0  0  0  0  0  0  0  0  0
   22.0370  -34.9730  -11.3370 C   0  0  0  0  0  0  0  0  0  0  0  0
   21.8960  -35.0940   -9.8540 C   0  0  0  0  0  1  0  0  0  0  0  0
   22.6160  -33.9520  -12.0590 C   0  0  0  0  0  0  0  0  0  0  0  0
   23.1820  -32.7150  -11.4100 C   0  0  0  0  0  1  0  0  0  0  0  0
   22.5910  -34.2220  -13.4730 C   0  0  0  0  0  0  0  0  0  0  0  0
   23.2390  -33.3360  -14.4840 C   0  0  0  0  0  0  0  0  0  0  0  0
   24.5780  -32.7900  -14.2010 C   0  0  0  0  0  0  0  0  0  0  0  0
   25.6430  -33.6560  -13.8760 C   0  0  0  0  0  3  0  0  0  0  0  0
   26.9170  -33.1310  -13.5870 C   0  0  0  0  0  3  0  0  0  0  0  0
   27.1300  -31.7440  -13.6350 C   0  0  0  0  0  0  0  0  0  0  0  0
   28.6760  -31.0700  -13.2840 Cl  0  0  0  0  0  0  0  0  0  0  0  0
   26.0720  -30.8910  -13.9620 C   0  0  0  0  0  3  0  0  0  0  0  0
   24.7900  -31.4000  -14.2350 C   0  0  0  0  0  3  0  0  0  0  0  0
   24.9140  -23.1920  -15.2080 C   0  0  0  0  0  3  0  0  0  0  0  0
   21.8030  -23.6920  -12.8510 C   0  0  0  0  0  3  0  0  0  0  0  0
   21.3120  -22.5190  -11.9890 C   0  0  0  0  0  2  0  0  0  0  0  0
   22.5580  -21.6980  -11.7270 C   0  0  0  0  0  3  0  0  0  0  0  0
   23.4440  -21.9220  -12.9500 C   0  0  0  0  0  2  0  0  0  0  0  0
   22.9960  -23.1800  -13.5560 N   0  0  0  0  0  0  0  0  0  0  0  0
   23.6560  -23.8340  -14.5410 C   0  0  0  0  0  0  0  0  0  0  0  0
   23.2980  -24.9540  -14.9180 O   0  0  0  0  0  0  0  0  0  0  0  0
   19.8820  -25.1510  -13.2250 N   0  0  0  0  0  0  0  0  0  0  0  0
   20.6520  -24.1870  -13.7430 C   0  0  0  0  0  0  0  0  0  0  0  0
   20.4350  -23.6700  -14.8410 O   0  0  0  0  0  0  0  0  0  0  0  0
   20.1420  -25.5320  -12.3260 H   0  0  0  0  0  0  0  0  0  0  0  0
   18.6320  -25.6270  -13.8020 C   0  0  0  0  0  2  0  0  0  0  0  0
   15.1980  -23.2020  -12.6720 C   0  0  0  0  0  0  0  0  0  0  0  0
   16.2490  -23.4110  -11.7570 C   0  0  0  0  0  3  0  0  0  0  0  0
   17.3610  -24.1910  -12.1200 C   0  0  0  0  0  3  0  0  0  0  0  0
   15.2730  -23.7780  -13.9580 C   0  0  0  0  0  3  0  0  0  0  0  0
   16.3870  -24.5590  -14.3210 C   0  0  0  0  0  3  0  0  0  0  0  0
   17.4370  -24.7700  -13.4040 C   0  0  0  0  0  0  0  0  0  0  0  0
   12.0830  -23.7940  -13.2710 C   0  0  0  0  0  1  0  0  0  0  0  0
   12.7080  -22.6500  -12.4970 C   0  0  0  0  0  0  0  0  0  0  0  0
   11.8630  -21.7390  -11.8970 N   0  0  0  0  0  0  0  0  0  0  0  0
   12.4770  -20.7900  -10.9740 C   0  0  0  0  0  2  0  0  0  0  0  0
   14.2510  -20.9830  -11.3040 S   0  0  0  0  0  0  0  0  0  0  0  0
   14.0080  -22.4490  -12.2410 C   0  0  0  0  0  0  0  0  0  0  0  0
   10.8510  -21.8270  -11.9080 H   0  0  0  0  0  0  0  0  0  0  0  0
   23.2320  -22.1790  -10.5750 O   0  0  0  0  0  0  0  0  0  0  0  0
   23.4560  -23.0930  -10.7160 H   0  0  0  0  0  0  0  0  0  0  0  0
   24.6070  -22.4870  -16.5780 C   0  0  1  0  0  0  0  0  0  0  0  0
   25.8830  -21.7550  -17.0570 C   0  0  0  0  0  1  0  0  0  0  0  0
   24.1760  -23.4720  -17.6980 C   0  0  0  0  0  1  0  0  0  0  0  0
   23.5010  -21.4260  -16.4280 C   0  0  0  0  0  1  0  0  0  0  0  0
  1 47  1  0
  1  2  1  0
  2  3  2  0
  4  5  1  0
  4  7  2  0
  5  2  1  0
  6  4  1  0
  8  1  1  0
  9  5  1  0
 10  6  1  0
 11 13  1  0
 12 15  1  0
 12 11  2  0
 13  6  1  0
 13 17  1  0
 14 11  1  0
 14 21  1  0
 16 12  1  0
 18 14  1  0
 19 20  2  0
 21 19  1  0
 21 22  1  0
 23 19  1  0
 24 23  1  0
 24 25  1  0
 25 39  2  0
 26 24  1  0
 26 31  1  0
 27 28  1  0
 27 26  2  0
 28 29  2  0
 29 31  1  0
 29 30  1  0
 31 32  1  0
 32 38  2  0
 32 33  1  0
 33 34  1  0
 34 35  1  0
 36 37  1  0
 36 34  2  0
 38 36  1  0
 39 40  1  0
 39 38  1  0
 40 41  1  0
 41 42  2  0
 43 42  1  0
 43 44  1  0
 45 43  2  0
 46 40  2  0
 46 45  1  0
 47 53  1  0
 48 56  1  0
 48 49  1  0
 49 50  1  0
 50 73  1  0
 51 50  1  0
 52 51  1  0
 52 48  1  0
 53 52  1  0
 54 53  2  0
 55 58  1  0
 56 55  1  0
 57 56  2  0
 59 65  1  0
 59 55  1  0
 60 71  1  0
 60 61  1  0
 62 61  2  0
 63 60  2  0
 64 63  1  0
 64 65  2  0
 65 62  1  0
 66 67  1  0
 67 71  2  0
 67 68  1  0
 68 69  1  0
 70 69  1  0
 71 70  1  0
 72 68  1  0
 74 73  1  0
 75 78  1  1
 75 47  1  0
 76 75  1  0
 77 75  1  0
M  ISO  4   2 101   5 101  19 100  21 100
M  END
>  <TORSDO>  (185) 
F 13

>  <SCORE>  (185) 
-10.462

>  <name>  (185) 
184

>  <ligand_id>  (185) 
184

>  <original_smiles>  (185) 
[H]OC1([H])C([H])([H])N(C(=O)C([H])(N([H])C(=O)N([H])C(=O)N([H])N([H])C(N([H])[H])=[N+]([H])N([H])C(=O)C([H])([H])C2([H])N=C(c3c([H])c([H])c(Cl)c([H])c3[H])c3c(sc(C([H])([H])[H])c3C([H])([H])[H])-n3c(C([H])([H])[H])nnc32)C(C([H])([H])[H])(C([H])([H])[H])C([H])([H])[H])C([H])(C(=O)N([H])C([H])([H])c2c([H])c([H])c(C3=C(C([H])([H])[H])N([H])C([H])([H])S3)c([H])c2[H])C1([H])[H]

>  <smiles>  (185) 
[H]OC1([H])C([H])([H])N(C(=O)C([H])(N([H])C(=O)N([H])C(=O)N([H])N([H])C(N([H])[H])=[N+]([H])N([H])C(=O)C([H])([H])C2([H])N=C(c3c([H])c([H])c(Cl)c([H])c3[H])c3c(sc(C([H])([H])[H])c3C([H])([H])[H])-n3c(C([H])([H])[H])nnc32)C(C([H])([H])[H])(C([H])([H])[H])C([H])([H])[H])C([H])(C(=O)N([H])C([H])([H])c2c([H])c([H])c(C3=C(C([H])([H])[H])N([H])C([H])([H])S3)c([H])c2[H])C1([H])[H]

$$$$
185:0:0
     RDKit          3D

 78 84  0  0  1  0  0  0  0  0999 V2000
   26.0360  -27.3220  -15.8190 C   0  0  0  0  0  3  0  0  0  0  0  0
   26.3350  -27.9270  -18.2740 C   0  0  0  0  0  1  0  0  0  0  0  0
   26.7460  -27.3900  -16.9700 N   0  0  0  0  0  0  0  0  0  0  0  0
   24.7930  -27.8570  -15.5900 N   0  0  0  0  0  0  0  0  0  0  0  0
   27.6970  -27.0480  -16.9450 H   0  0  0  0  0  0  0  0  0  0  0  0
   24.3510  -27.6520  -14.7010 H   0  0  0  0  0  0  0  0  0  0  0  0
   22.7490  -28.4300  -16.9300 C   0  0  0  0  0  0  0  0  0  0  0  0
   21.8050  -29.2170  -17.3590 N   0  0  0  0  0  2  0  0  0  0  0  0
   22.4010  -27.1090  -16.8360 N   0  0  0  0  0  4  0  0  0  0  0  0
   24.0640  -28.6880  -16.5290 N   0  0  0  0  0  0  0  0  0  0  0  0
   21.4740  -26.7860  -17.0830 H   0  0  0  0  0  0  0  0  0  0  0  0
   22.8580  -26.4250  -16.2370 H   0  0  0  0  0  0  0  0  0  0  0  0
   24.4660  -29.6160  -16.5630 H   0  0  0  0  0  0  0  0  0  0  0  0
   21.0350  -31.4660  -17.1580 C   0  0  0  0  0  0  0  0  0  0  0  0
   20.0740  -31.0970  -16.4850 O   0  0  0  0  0  0  0  0  0  0  0  0
   22.0310  -30.5770  -17.4400 N   0  0  0  0  0  0  0  0  0  0  0  0
   22.9220  -30.8830  -17.8080 H   0  0  0  0  0  0  0  0  0  0  0  0
   21.1860  -32.9810  -17.4480 C   0  0  0  0  0  2  0  0  0  0  0  0
   21.5520  -33.7310  -16.1360 C   0  0  0  0  0  3  0  0  0  0  0  0
   22.8830  -33.2670  -15.7630 N   0  0  0  0  0  0  0  0  0  0  0  0
   21.5440  -35.2560  -16.1680 C   0  0  0  0  0  0  0  0  0  0  0  0
   21.3470  -36.0420  -17.2340 N   0  0  0  0  0  0  0  0  0  0  0  0
   21.5340  -37.3380  -16.7850 N   0  0  0  0  0  0  0  0  0  0  0  0
   21.8340  -37.2360  -15.4860 C   0  0  0  0  0  0  0  0  0  0  0  0
   22.1820  -38.4130  -14.6230 C   0  0  0  0  0  1  0  0  0  0  0  0
   21.8200  -35.9580  -15.0460 N   0  0  0  0  0  0  0  0  0  0  0  0
   22.0300  -35.4340  -13.7530 C   0  0  0  0  0  0  0  0  0  0  0  0
   21.4490  -36.1300  -12.2730 S   0  0  0  0  0  0  0  0  0  0  0  0
   22.0570  -34.7860  -11.3470 C   0  0  0  0  0  0  0  0  0  0  0  0
   21.8650  -34.7640   -9.8650 C   0  0  0  0  0  1  0  0  0  0  0  0
   22.6610  -33.8390  -12.1450 C   0  0  0  0  0  0  0  0  0  0  0  0
   23.2080  -32.5440  -11.5980 C   0  0  0  0  0  1  0  0  0  0  0  0
   22.6840  -34.2420  -13.5270 C   0  0  0  0  0  0  0  0  0  0  0  0
   23.3640  -33.4550  -14.5980 C   0  0  0  0  0  0  0  0  0  0  0  0
   24.6910  -32.8720  -14.3320 C   0  0  0  0  0  0  0  0  0  0  0  0
   25.6900  -33.6450  -13.7050 C   0  0  0  0  0  3  0  0  0  0  0  0
   26.9490  -33.0780  -13.4330 C   0  0  0  0  0  3  0  0  0  0  0  0
   27.2120  -31.7450  -13.7930 C   0  0  0  0  0  0  0  0  0  0  0  0
   28.7500  -31.0430  -13.4570 Cl  0  0  0  0  0  0  0  0  0  0  0  0
   26.2200  -30.9740  -14.4230 C   0  0  0  0  0  3  0  0  0  0  0  0
   24.9570  -31.5360  -14.6890 C   0  0  0  0  0  3  0  0  0  0  0  0
   26.6890  -26.7280  -14.7640 O   0  0  0  0  0  0  0  0  0  0  0  0
   25.8670  -24.7870  -15.4870 N   0  0  0  0  0  0  0  0  0  0  0  0
   26.6810  -25.3600  -14.5500 C   0  0  0  0  0  0  0  0  0  0  0  0
   27.1920  -24.7650  -13.5900 O   0  0  0  0  0  0  0  0  0  0  0  0
   25.6090  -25.3690  -16.2670 H   0  0  0  0  0  0  0  0  0  0  0  0
   24.9740  -23.6600  -15.2670 C   0  0  0  0  0  3  0  0  0  0  0  0
   21.8860  -23.9590  -12.8360 C   0  0  0  0  0  3  0  0  0  0  0  0
   21.4480  -22.7440  -12.0040 C   0  0  0  0  0  2  0  0  0  0  0  0
   22.7240  -21.9560  -11.7900 C   0  0  0  0  0  3  0  0  0  0  0  0
   23.5790  -22.2450  -13.0230 C   0  0  0  0  0  2  0  0  0  0  0  0
   23.0810  -23.5080  -13.5800 N   0  0  0  0  0  0  0  0  0  0  0  0
   23.7090  -24.2250  -14.5430 C   0  0  0  0  0  0  0  0  0  0  0  0
   23.3460  -25.3700  -14.8360 O   0  0  0  0  0  0  0  0  0  0  0  0
   19.9130  -25.3620  -13.1360 N   0  0  0  0  0  0  0  0  0  0  0  0
   20.7050  -24.4410  -13.6950 C   0  0  0  0  0  0  0  0  0  0  0  0
   20.4870  -23.9460  -14.8040 O   0  0  0  0  0  0  0  0  0  0  0  0
   20.1750  -25.7250  -12.2290 H   0  0  0  0  0  0  0  0  0  0  0  0
   18.6390  -25.8130  -13.6790 C   0  0  0  0  0  2  0  0  0  0  0  0
   15.3160  -23.2030  -12.6310 C   0  0  0  0  0  0  0  0  0  0  0  0
   16.3600  -23.4250  -11.7100 C   0  0  0  0  0  3  0  0  0  0  0  0
   17.4360  -24.2650  -12.0460 C   0  0  0  0  0  3  0  0  0  0  0  0
   15.3620  -23.8270  -13.8960 C   0  0  0  0  0  3  0  0  0  0  0  0
   16.4400  -24.6670  -14.2320 C   0  0  0  0  0  3  0  0  0  0  0  0
   17.4820  -24.8920  -13.3100 C   0  0  0  0  0  0  0  0  0  0  0  0
   12.1770  -23.6700  -13.2180 C   0  0  0  0  0  1  0  0  0  0  0  0
   12.8530  -22.5320  -12.4780 C   0  0  0  0  0  0  0  0  0  0  0  0
   12.0510  -21.5650  -11.9080 N   0  0  0  0  0  0  0  0  0  0  0  0
   12.7070  -20.6170  -11.0160 C   0  0  0  0  0  2  0  0  0  0  0  0
   14.4690  -20.9000  -11.3350 S   0  0  0  0  0  0  0  0  0  0  0  0
   14.1610  -22.3820  -12.2270 C   0  0  0  0  0  0  0  0  0  0  0  0
   11.0350  -21.6080  -11.9190 H   0  0  0  0  0  0  0  0  0  0  0  0
   23.4020  -22.4230  -10.6340 O   0  0  0  0  0  0  0  0  0  0  0  0
   23.5910  -23.3480  -10.7480 H   0  0  0  0  0  0  0  0  0  0  0  0
   24.6800  -23.0530  -16.6830 C   0  0  1  0  0  0  0  0  0  0  0  0
   25.9830  -22.4200  -17.2250 C   0  0  0  0  0  1  0  0  0  0  0  0
   24.1910  -24.1010  -17.7130 C   0  0  0  0  0  1  0  0  0  0  0  0
   23.6240  -21.9320  -16.6150 C   0  0  0  0  0  1  0  0  0  0  0  0
  1  4  1  0
  1 42  1  0
  2  3  1  0
  3  5  1  0
  3  1  1  0
  4  6  1  0
  7  9  2  0
  7 10  1  0
  8  7  1  0
  9 12  1  0
 10  4  1  0
 11  9  1  0
 13 10  1  0
 14 15  2  0
 16  8  1  0
 16 14  1  0
 17 16  1  0
 18 14  1  0
 19 18  1  0
 19 20  1  0
 20 34  2  0
 21 19  1  0
 21 26  1  0
 22 23  1  0
 22 21  2  0
 23 24  2  0
 24 26  1  0
 24 25  1  0
 26 27  1  0
 27 33  2  0
 27 28  1  0
 28 29  1  0
 29 30  1  0
 31 32  1  0
 31 29  2  0
 33 31  1  0
 34 35  1  0
 34 33  1  0
 35 36  1  0
 36 37  2  0
 38 39  1  0
 38 37  1  0
 40 38  2  0
 41 40  1  0
 41 35  2  0
 42 44  1  0
 43 47  1  0
 43 44  1  0
 44 45  2  0
 46 43  1  0
 47 53  1  0
 48 56  1  0
 48 49  1  0
 49 50  1  0
 50 73  1  0
 51 50  1  0
 52 51  1  0
 52 48  1  0
 53 52  1  0
 54 53  2  0
 55 58  1  0
 56 55  1  0
 57 56  2  0
 59 65  1  0
 59 55  1  0
 60 71  1  0
 60 61  1  0
 62 61  2  0
 63 60  2  0
 64 63  1  0
 64 65  2  0
 65 62  1  0
 66 67  1  0
 67 71  2  0
 67 68  1  0
 68 69  1  0
 70 69  1  0
 71 70  1  0
 72 68  1  0
 74 73  1  0
 75 78  1  1
 75 47  1  0
 76 75  1  0
 77 75  1  0
M  ISO  4  14 100  16 100  42 101  44 101
M  END
>  <TORSDO>  (186) 
F 15

>  <SCORE>  (186) 
-14.731

>  <name>  (186) 
185

>  <ligand_id>  (186) 
185

>  <original_smiles>  (186) 
[H]OC1([H])C([H])([H])N(C(=O)C([H])(N([H])C(=O)OC(N([H])C([H])([H])[H])=[N+]([H])N([H])C(=NN([H])C(=O)C([H])([H])C2([H])N=C(c3c([H])c([H])c(Cl)c([H])c3[H])c3c(sc(C([H])([H])[H])c3C([H])([H])[H])-n3c(C([H])([H])[H])nnc32)N([H])[H])C(C([H])([H])[H])(C([H])([H])[H])C([H])([H])[H])C([H])(C(=O)N([H])C([H])([H])c2c([H])c([H])c(C3=C(C([H])([H])[H])N([H])C([H])([H])S3)c([H])c2[H])C1([H])[H]

>  <smiles>  (186) 
[H]OC1([H])C([H])([H])N(C(=O)C([H])(N([H])C(=O)OC(N([H])C([H])([H])[H])=[N+]([H])N([H])C(=NN([H])C(=O)C([H])([H])C2([H])N=C(c3c([H])c([H])c(Cl)c([H])c3[H])c3c(sc(C([H])([H])[H])c3C([H])([H])[H])-n3c(C([H])([H])[H])nnc32)N([H])[H])C(C([H])([H])[H])(C([H])([H])[H])C([H])([H])[H])C([H])(C(=O)N([H])C([H])([H])c2c([H])c([H])c(C3=C(C([H])([H])[H])N([H])C([H])([H])S3)c([H])c2[H])C1([H])[H]

$$$$
186:0:0
     RDKit          3D

 75 81  0  0  1  0  0  0  0  0999 V2000
   25.8650  -24.6930  -15.3950 N   0  0  0  0  0  0  0  0  0  0  0  0
   26.8400  -25.1530  -14.6160 C   0  0  0  0  0  0  0  0  0  0  0  0
   27.2230  -24.5720  -13.5980 O   0  0  0  0  0  0  0  0  0  0  0  0
   27.3540  -26.3290  -15.0370 N   0  0  0  0  0  0  0  0  0  0  0  0
   25.6110  -25.2760  -16.1700 H   0  0  0  0  0  0  0  0  0  0  0  0
   28.1100  -26.6550  -14.4470 H   0  0  0  0  0  0  0  0  0  0  0  0
   26.1440  -27.2510  -16.8470 C   0  0  0  0  0  3  0  0  0  0  0  0
   26.6950  -27.3730  -15.6790 N   0  0  0  0  0  0  0  0  0  0  0  0
   25.4080  -28.3860  -17.4710 C   0  0  0  0  0  0  0  0  0  0  0  0
   24.1740  -28.0950  -17.9190 N   0  0  0  0  0  0  0  0  0  0  0  0
   25.9140  -29.5050  -17.5910 O   0  0  0  0  0  0  0  0  0  0  0  0
   23.8000  -27.1750  -17.7330 H   0  0  0  0  0  0  0  0  0  0  0  0
   23.2630  -29.0260  -18.6020 C   0  0  0  0  0  2  0  0  0  0  0  0
   20.7780  -31.4220  -17.1150 C   0  0  0  0  0  0  0  0  0  0  0  0
   20.0910  -30.9500  -16.2030 O   0  0  0  0  0  0  0  0  0  0  0  0
   22.0800  -29.4500  -17.7150 C   0  0  0  0  0  0  0  0  0  0  0  0
   21.6540  -30.7190  -17.8640 N   0  0  0  0  0  0  0  0  0  0  0  0
   21.6050  -28.6270  -16.9240 O   0  0  0  0  0  0  0  0  0  0  0  0
   22.1600  -31.2570  -18.5500 H   0  0  0  0  0  0  0  0  0  0  0  0
   20.8130  -32.9460  -17.3150 C   0  0  0  0  0  2  0  0  0  0  0  0
   21.3460  -33.6590  -16.0420 C   0  0  0  0  0  3  0  0  0  0  0  0
   22.6850  -33.1540  -15.7280 N   0  0  0  0  0  0  0  0  0  0  0  0
   21.3860  -35.1740  -16.1300 C   0  0  0  0  0  0  0  0  0  0  0  0
   21.1760  -35.9200  -17.2210 N   0  0  0  0  0  0  0  0  0  0  0  0
   21.4120  -37.2250  -16.8330 N   0  0  0  0  0  0  0  0  0  0  0  0
   21.7590  -37.1650  -15.5430 C   0  0  0  0  0  0  0  0  0  0  0  0
   22.1630  -38.3640  -14.7410 C   0  0  0  0  0  1  0  0  0  0  0  0
   21.7340  -35.9060  -15.0530 N   0  0  0  0  0  0  0  0  0  0  0  0
   21.9890  -35.4200  -13.7550 C   0  0  0  0  0  0  0  0  0  0  0  0
   21.4810  -36.1790  -12.2800 S   0  0  0  0  0  0  0  0  0  0  0  0
   22.1010  -34.8570  -11.3330 C   0  0  0  0  0  0  0  0  0  0  0  0
   21.9680  -34.8930   -9.8440 C   0  0  0  0  0  1  0  0  0  0  0  0
   22.6550  -33.8700  -12.1200 C   0  0  0  0  0  0  0  0  0  0  0  0
   23.1990  -32.5860  -11.5450 C   0  0  0  0  0  1  0  0  0  0  0  0
   22.6260  -34.2200  -13.5180 C   0  0  0  0  0  0  0  0  0  0  0  0
   23.2350  -33.3740  -14.5940 C   0  0  0  0  0  0  0  0  0  0  0  0
   24.5650  -32.7760  -14.3560 C   0  0  0  0  0  0  0  0  0  0  0  0
   25.5990  -33.5550  -13.7920 C   0  0  0  0  0  3  0  0  0  0  0  0
   26.8590  -32.9810  -13.5400 C   0  0  0  0  0  3  0  0  0  0  0  0
   27.0870  -31.6270  -13.8450 C   0  0  0  0  0  0  0  0  0  0  0  0
   28.6270  -30.9150  -13.5380 Cl  0  0  0  0  0  0  0  0  0  0  0  0
   26.0560  -30.8500  -14.4000 C   0  0  0  0  0  3  0  0  0  0  0  0
   24.7990  -31.4200  -14.6700 C   0  0  0  0  0  3  0  0  0  0  0  0
   24.9550  -23.5800  -15.1640 C   0  0  0  0  0  3  0  0  0  0  0  0
   21.8450  -23.8950  -12.7820 C   0  0  0  0  0  3  0  0  0  0  0  0
   21.3820  -22.6720  -11.9710 C   0  0  0  0  0  2  0  0  0  0  0  0
   22.6440  -21.8650  -11.7550 C   0  0  0  0  0  3  0  0  0  0  0  0
   23.5170  -22.1640  -12.9730 C   0  0  0  0  0  2  0  0  0  0  0  0
   23.0430  -23.4420  -13.5170 N   0  0  0  0  0  0  0  0  0  0  0  0
   23.6940  -24.1670  -14.4630 C   0  0  0  0  0  0  0  0  0  0  0  0
   23.3410  -25.3150  -14.7600 O   0  0  0  0  0  0  0  0  0  0  0  0
   19.8970  -25.3280  -13.0870 N   0  0  0  0  0  0  0  0  0  0  0  0
   20.6800  -24.4010  -13.6480 C   0  0  0  0  0  0  0  0  0  0  0  0
   20.4640  -23.9190  -14.7620 O   0  0  0  0  0  0  0  0  0  0  0  0
   20.1570  -25.6800  -12.1750 H   0  0  0  0  0  0  0  0  0  0  0  0
   18.6340  -25.8040  -13.6360 C   0  0  0  0  0  2  0  0  0  0  0  0
   15.2600  -23.2470  -12.6200 C   0  0  0  0  0  0  0  0  0  0  0  0
   16.3050  -23.4430  -11.6930 C   0  0  0  0  0  3  0  0  0  0  0  0
   17.3970  -24.2650  -12.0180 C   0  0  0  0  0  3  0  0  0  0  0  0
   15.3230  -23.8790  -13.8790 C   0  0  0  0  0  3  0  0  0  0  0  0
   16.4180  -24.7020  -14.2050 C   0  0  0  0  0  3  0  0  0  0  0  0
   17.4600  -24.9000  -13.2780 C   0  0  0  0  0  0  0  0  0  0  0  0
   12.1340  -23.7770  -13.2170 C   0  0  0  0  0  1  0  0  0  0  0  0
   12.7850  -22.6220  -12.4820 C   0  0  0  0  0  0  0  0  0  0  0  0
   11.9620  -21.6660  -11.9220 N   0  0  0  0  0  0  0  0  0  0  0  0
   12.5960  -20.7000  -11.0320 C   0  0  0  0  0  2  0  0  0  0  0  0
   14.3660  -20.9530  -11.3430 S   0  0  0  0  0  0  0  0  0  0  0  0
   14.0890  -22.4460  -12.2260 C   0  0  0  0  0  0  0  0  0  0  0  0
   10.9480  -21.7280  -11.9370 H   0  0  0  0  0  0  0  0  0  0  0  0
   23.3170  -22.3060  -10.5870 O   0  0  0  0  0  0  0  0  0  0  0  0
   23.5290  -23.2290  -10.6900 H   0  0  0  0  0  0  0  0  0  0  0  0
   24.6510  -22.9240  -16.5630 C   0  0  1  0  0  0  0  0  0  0  0  0
   25.9470  -22.2720  -17.0970 C   0  0  0  0  0  1  0  0  0  0  0  0
   24.1480  -23.9290  -17.6290 C   0  0  0  0  0  1  0  0  0  0  0  0
   23.5980  -21.8010  -16.4460 C   0  0  0  0  0  1  0  0  0  0  0  0
  1 44  1  0
  1  2  1  0
  2  3  2  0
  4  2  1  0
  4  6  1  0
  5  1  1  0
  7  8  2  0
  8  4  1  0
  9  7  1  0
 10 12  1  0
 10  9  1  0
 11  9  2  0
 13 10  1  0
 13 16  1  0
 14 15  2  0
 16 18  2  0
 17 16  1  0
 17 14  1  0
 19 17  1  0
 20 14  1  0
 21 20  1  0
 21 22  1  0
 22 36  2  0
 23 21  1  0
 23 28  1  0
 24 25  1  0
 24 23  2  0
 25 26  2  0
 26 28  1  0
 26 27  1  0
 28 29  1  0
 29 35  2  0
 29 30  1  0
 30 31  1  0
 31 32  1  0
 33 34  1  0
 33 31  2  0
 35 33  1  0
 36 37  1  0
 36 35  1  0
 37 38  1  0
 38 39  2  0
 40 39  1  0
 40 41  1  0
 42 40  2  0
 43 42  1  0
 43 37  2  0
 44 50  1  0
 45 53  1  0
 45 46  1  0
 46 47  1  0
 47 70  1  0
 48 47  1  0
 49 48  1  0
 49 45  1  0
 50 49  1  0
 51 50  2  0
 52 55  1  0
 53 52  1  0
 54 53  2  0
 56 62  1  0
 56 52  1  0
 57 68  1  0
 57 58  1  0
 59 58  2  0
 60 57  2  0
 61 60  1  0
 61 62  2  0
 62 59  1  0
 63 64  1  0
 64 68  2  0
 64 65  1  0
 65 66  1  0
 67 66  1  0
 68 67  1  0
 69 65  1  0
 71 70  1  0
 72 75  1  1
 72 44  1  0
 73 72  1  0
 74 72  1  0
M  ISO  4   2 101   4 101  14 100  17 100
M  END
>  <TORSDO>  (187) 
F 15

>  <SCORE>  (187) 
-13.858

>  <name>  (187) 
186

>  <ligand_id>  (187) 
186

>  <original_smiles>  (187) 
[H]OC1([H])C([H])([H])N(C(=O)C([H])(N([H])C(=O)N([H])N=C([H])C(=O)N([H])C([H])([H])C(=O)N([H])C(=O)C([H])([H])C2([H])N=C(c3c([H])c([H])c(Cl)c([H])c3[H])c3c(sc(C([H])([H])[H])c3C([H])([H])[H])-n3c(C([H])([H])[H])nnc32)C(C([H])([H])[H])(C([H])([H])[H])C([H])([H])[H])C([H])(C(=O)N([H])C([H])([H])c2c([H])c([H])c(C3=C(C([H])([H])[H])N([H])C([H])([H])S3)c([H])c2[H])C1([H])[H]

>  <smiles>  (187) 
[H]OC1([H])C([H])([H])N(C(=O)C([H])(N([H])C(=O)N([H])N=C([H])C(=O)N([H])C([H])([H])C(=O)N([H])C(=O)C([H])([H])C2([H])N=C(c3c([H])c([H])c(Cl)c([H])c3[H])c3c(sc(C([H])([H])[H])c3C([H])([H])[H])-n3c(C([H])([H])[H])nnc32)C(C([H])([H])[H])(C([H])([H])[H])C([H])([H])[H])C([H])(C(=O)N([H])C([H])([H])c2c([H])c([H])c(C3=C(C([H])([H])[H])N([H])C([H])([H])S3)c([H])c2[H])C1([H])[H]

$$$$
187:0:0
     RDKit          3D

 81 87  0  0  1  0  0  0  0  0999 V2000
   27.1310  -26.9420  -16.4750 C   0  0  0  0  0  3  0  0  0  0  0  0
   25.8480  -24.7120  -15.3910 N   0  0  0  0  0  0  0  0  0  0  0  0
   26.8620  -25.1550  -14.6590 C   0  0  0  0  0  0  0  0  0  0  0  0
   27.2800  -24.5670  -13.6530 O   0  0  0  0  0  0  0  0  0  0  0  0
   27.3150  -26.3450  -15.1160 N   0  0  0  0  0  0  0  0  0  0  0  0
   25.5140  -25.3250  -16.1160 H   0  0  0  0  0  0  0  0  0  0  0  0
   28.0050  -26.7850  -14.5250 H   0  0  0  0  0  0  0  0  0  0  0  0
   24.9580  -23.5870  -15.1810 C   0  0  0  0  0  3  0  0  0  0  0  0
   21.8030  -23.8470  -12.8590 C   0  0  0  0  0  3  0  0  0  0  0  0
   21.3220  -22.6060  -12.0890 C   0  0  0  0  0  2  0  0  0  0  0  0
   22.5810  -21.7930  -11.8660 C   0  0  0  0  0  3  0  0  0  0  0  0
   23.4790  -22.1200  -13.0580 C   0  0  0  0  0  2  0  0  0  0  0  0
   23.0150  -23.4120  -13.5800 N   0  0  0  0  0  0  0  0  0  0  0  0
   23.6830  -24.1580  -14.4940 C   0  0  0  0  0  0  0  0  0  0  0  0
   23.3340  -25.3120  -14.7700 O   0  0  0  0  0  0  0  0  0  0  0  0
   19.8760  -25.3070  -13.1790 N   0  0  0  0  0  0  0  0  0  0  0  0
   20.6570  -24.3760  -13.7370 C   0  0  0  0  0  0  0  0  0  0  0  0
   20.4560  -23.9120  -14.8620 O   0  0  0  0  0  0  0  0  0  0  0  0
   20.1240  -25.6440  -12.2600 H   0  0  0  0  0  0  0  0  0  0  0  0
   18.6270  -25.8010  -13.7430 C   0  0  0  0  0  2  0  0  0  0  0  0
   15.2040  -23.2970  -12.7650 C   0  0  0  0  0  0  0  0  0  0  0  0
   16.2240  -23.5030  -11.8150 C   0  0  0  0  0  3  0  0  0  0  0  0
   17.3330  -24.3080  -12.1280 C   0  0  0  0  0  3  0  0  0  0  0  0
   15.3050  -23.9030  -14.0360 C   0  0  0  0  0  3  0  0  0  0  0  0
   16.4160  -24.7090  -14.3490 C   0  0  0  0  0  3  0  0  0  0  0  0
   17.4360  -24.9160  -13.3980 C   0  0  0  0  0  0  0  0  0  0  0  0
   12.1040  -23.8150  -13.5000 C   0  0  0  0  0  1  0  0  0  0  0  0
   12.7220  -22.6860  -12.6980 C   0  0  0  0  0  0  0  0  0  0  0  0
   11.8740  -21.7550  -12.1350 N   0  0  0  0  0  0  0  0  0  0  0  0
   12.4690  -20.8220  -11.1850 C   0  0  0  0  0  2  0  0  0  0  0  0
   14.2500  -21.0570  -11.4370 S   0  0  0  0  0  0  0  0  0  0  0  0
   14.0140  -22.5160  -12.3860 C   0  0  0  0  0  0  0  0  0  0  0  0
   10.8620  -21.8200  -12.1900 H   0  0  0  0  0  0  0  0  0  0  0  0
   23.2290  -22.2050  -10.6730 O   0  0  0  0  0  0  0  0  0  0  0  0
   23.4400  -23.1310  -10.7500 H   0  0  0  0  0  0  0  0  0  0  0  0
   24.6870  -22.9690  -16.6040 C   0  0  1  0  0  0  0  0  0  0  0  0
   26.0010  -22.3510  -17.1370 C   0  0  0  0  0  1  0  0  0  0  0  0
   24.1910  -24.0030  -17.6480 C   0  0  0  0  0  1  0  0  0  0  0  0
   23.6480  -21.8320  -16.5420 C   0  0  0  0  0  1  0  0  0  0  0  0
   28.3480  -27.1320  -17.2880 N   0  0  0  0  0  4  0  0  0  0  0  0
   29.0170  -27.7410  -16.8520 H   0  0  0  0  0  0  0  0  0  0  0  0
   28.8040  -26.2500  -17.4500 H   0  0  0  0  0  0  0  0  0  0  0  0
   28.1200  -27.5070  -18.1920 H   0  0  0  0  0  0  0  0  0  0  0  0
   26.3890  -28.2210  -16.3660 N   0  0  0  0  0  0  0  0  0  0  0  0
   26.9340  -29.0810  -16.3770 H   0  0  0  0  0  0  0  0  0  0  0  0
   24.7530  -29.5350  -17.0620 N   0  0  0  0  0  2  0  0  0  0  0  0
   25.0440  -28.3620  -16.7220 N   0  0  0  0  0  2  0  0  0  0  0  0
   23.5000  -30.0640  -17.2130 C   0  0  0  0  0  0  0  0  0  0  0  0
   23.4400  -31.3280  -17.6690 N   0  0  0  0  0  4  0  0  0  0  0  0
   22.2990  -29.4860  -16.9300 N   0  0  0  0  0  0  0  0  0  0  0  0
   24.2990  -31.7220  -18.0270 H   0  0  0  0  0  0  0  0  0  0  0  0
   22.8540  -31.9640  -17.1410 H   0  0  0  0  0  0  0  0  0  0  0  0
   22.2310  -28.5560  -16.5350 H   0  0  0  0  0  0  0  0  0  0  0  0
   20.4220  -30.8610  -16.4800 C   0  0  0  0  0  0  0  0  0  0  0  0
   20.0510  -30.4240  -15.3860 O   0  0  0  0  0  0  0  0  0  0  0  0
   21.1020  -30.1190  -17.3780 N   0  0  0  0  0  0  0  0  0  0  0  0
   21.3790  -30.5380  -18.2590 H   0  0  0  0  0  0  0  0  0  0  0  0
   20.2620  -32.3570  -16.8090 C   0  0  0  0  0  2  0  0  0  0  0  0
   20.8360  -33.2590  -15.6810 C   0  0  0  0  0  3  0  0  0  0  0  0
   22.2230  -32.8700  -15.4020 N   0  0  0  0  0  0  0  0  0  0  0  0
   20.7740  -34.7520  -15.9610 C   0  0  0  0  0  0  0  0  0  0  0  0
   20.4580  -35.3390  -17.1220 N   0  0  0  0  0  0  0  0  0  0  0  0
   20.6370  -36.6940  -16.9170 N   0  0  0  0  0  0  0  0  0  0  0  0
   21.0610  -36.8200  -15.6550 C   0  0  0  0  0  0  0  0  0  0  0  0
   21.4380  -38.1340  -15.0400 C   0  0  0  0  0  1  0  0  0  0  0  0
   21.1390  -35.6360  -15.0100 N   0  0  0  0  0  0  0  0  0  0  0  0
   21.4980  -35.3370  -13.6810 C   0  0  0  0  0  0  0  0  0  0  0  0
   21.0330  -36.2540  -12.2840 S   0  0  0  0  0  0  0  0  0  0  0  0
   21.7860  -35.1000  -11.2200 C   0  0  0  0  0  0  0  0  0  0  0  0
   21.7380  -35.3230   -9.7420 C   0  0  0  0  0  1  0  0  0  0  0  0
   22.3510  -34.0500  -11.9110 C   0  0  0  0  0  0  0  0  0  0  0  0
   23.0060  -32.8830  -11.2150 C   0  0  0  0  0  1  0  0  0  0  0  0
   22.2180  -34.2140  -13.3370 C   0  0  0  0  0  0  0  0  0  0  0  0
   22.8160  -33.2700  -14.3360 C   0  0  0  0  0  0  0  0  0  0  0  0
   24.1910  -32.7830  -14.1040 C   0  0  0  0  0  0  0  0  0  0  0  0
   25.2260  -33.6950  -13.8050 C   0  0  0  0  0  3  0  0  0  0  0  0
   26.5320  -33.2260  -13.5620 C   0  0  0  0  0  3  0  0  0  0  0  0
   26.8020  -31.8460  -13.6070 C   0  0  0  0  0  0  0  0  0  0  0  0
   28.3970  -31.2610  -13.3200 Cl  0  0  0  0  0  0  0  0  0  0  0  0
   25.7630  -30.9390  -13.8680 C   0  0  0  0  0  3  0  0  0  0  0  0
   24.4610  -31.4010  -14.1310 C   0  0  0  0  0  3  0  0  0  0  0  0
  1 44  1  0
  1  5  1  0
  2  8  1  0
  2  3  1  0
  3  4  2  0
  5  3  1  0
  5  7  1  0
  6  2  1  0
  8 14  1  0
  9 17  1  0
  9 10  1  0
 10 11  1  0
 11 34  1  0
 12 11  1  0
 13 12  1  0
 13  9  1  0
 14 13  1  0
 15 14  2  0
 16 19  1  0
 17 16  1  0
 18 17  2  0
 20 26  1  0
 20 16  1  0
 21 32  1  0
 21 22  1  0
 23 22  2  0
 24 21  2  0
 25 24  1  0
 25 26  2  0
 26 23  1  0
 27 28  1  0
 28 32  2  0
 28 29  1  0
 29 30  1  0
 31 30  1  0
 32 31  1  0
 33 29  1  0
 35 34  1  0
 36 39  1  1
 36  8  1  0
 37 36  1  0
 38 36  1  0
 40 41  1  0
 40  1  1  0
 42 40  1  0
 43 40  1  0
 45 44  1  0
 46 47  1  0
 47 44  1  0
 48 46  1  0
 48 50  1  0
 49 48  2  0
 49 52  1  0
 50 53  1  0
 51 49  1  0
 54 55  2  0
 56 50  1  0
 56 54  1  0
 57 56  1  0
 58 54  1  0
 59 58  1  0
 59 60  1  0
 60 74  2  0
 61 59  1  0
 61 66  1  0
 62 63  1  0
 62 61  2  0
 63 64  2  0
 64 65  1  0
 64 66  1  0
 66 67  1  0
 67 73  2  0
 67 68  1  0
 68 69  1  0
 69 70  1  0
 71 69  2  0
 71 72  1  0
 73 71  1  0
 74 75  1  0
 74 73  1  0
 75 76  1  0
 76 77  2  0
 78 77  1  0
 78 79  1  0
 80 78  2  0
 81 75  2  0
 81 80  1  0
M  ISO  4   3 101   5 101  54 100  56 100
M  END
>  <TORSDO>  (188) 
F 17

>  <SCORE>  (188) 
-10.724

>  <name>  (188) 
187

>  <ligand_id>  (188) 
187

>  <original_smiles>  (188) 
[H]OC1([H])C([H])([H])N(C(=O)C([H])(N([H])C(=O)N([H])C([H])(N([H])N=NC(N([H])[H])=[N+]([H])N([H])C(=O)C([H])([H])C2([H])N=C(c3c([H])c([H])c(Cl)c([H])c3[H])c3c(sc(C([H])([H])[H])c3C([H])([H])[H])-n3c(C([H])([H])[H])nnc32)[N+]([H])([H])[H])C(C([H])([H])[H])(C([H])([H])[H])C([H])([H])[H])C([H])(C(=O)N([H])C([H])([H])c2c([H])c([H])c(C3=C(C([H])([H])[H])N([H])C([H])([H])S3)c([H])c2[H])C1([H])[H]

>  <smiles>  (188) 
[H]OC1([H])C([H])([H])N(C(=O)C([H])(N([H])C(=O)N([H])C([H])(N([H])N=NC(N([H])[H])=[N+]([H])N([H])C(=O)C([H])([H])C2([H])N=C(c3c([H])c([H])c(Cl)c([H])c3[H])c3c(sc(C([H])([H])[H])c3C([H])([H])[H])-n3c(C([H])([H])[H])nnc32)[N+]([H])([H])[H])C(C([H])([H])[H])(C([H])([H])[H])C([H])([H])[H])C([H])(C(=O)N([H])C([H])([H])c2c([H])c([H])c(C3=C(C([H])([H])[H])N([H])C([H])([H])S3)c([H])c2[H])C1([H])[H]

$$$$
188:0:0
     RDKit          3D

 76 83  0  0  1  0  0  0  0  0999 V2000
   27.8290  -27.1690  -15.1520 C   0  0  0  0  0  2  0  0  0  0  0  0
   25.9940  -24.5410  -15.3280 N   0  0  0  0  0  0  0  0  0  0  0  0
   26.9500  -24.9700  -14.5160 C   0  0  0  0  0  0  0  0  0  0  0  0
   27.1110  -24.6290  -13.3450 O   0  0  0  0  0  0  0  0  0  0  0  0
   27.7960  -25.7170  -15.2090 N   0  0  0  0  0  0  0  0  0  0  0  0
   25.9550  -24.9270  -16.2540 H   0  0  0  0  0  0  0  0  0  0  0  0
   27.9720  -25.3630  -16.1380 H   0  0  0  0  0  0  0  0  0  0  0  0
   25.0320  -23.4770  -15.1090 C   0  0  0  0  0  3  0  0  0  0  0  0
   21.8440  -23.7770  -12.8400 C   0  0  0  0  0  3  0  0  0  0  0  0
   21.3150  -22.5320  -12.1080 C   0  0  0  0  0  2  0  0  0  0  0  0
   22.5460  -21.6840  -11.8750 C   0  0  0  0  0  3  0  0  0  0  0  0
   23.4780  -22.0140  -13.0410 C   0  0  0  0  0  2  0  0  0  0  0  0
   23.0590  -23.3290  -13.5480 N   0  0  0  0  0  0  0  0  0  0  0  0
   23.7690  -24.0780  -14.4290 C   0  0  0  0  0  0  0  0  0  0  0  0
   23.4630  -25.2490  -14.6850 O   0  0  0  0  0  0  0  0  0  0  0  0
   19.9630  -25.2940  -13.1670 N   0  0  0  0  0  0  0  0  0  0  0  0
   20.7310  -24.3560  -13.7300 C   0  0  0  0  0  0  0  0  0  0  0  0
   20.5400  -23.9200  -14.8690 O   0  0  0  0  0  0  0  0  0  0  0  0
   20.2030  -25.6080  -12.2370 H   0  0  0  0  0  0  0  0  0  0  0  0
   18.7360  -25.8300  -13.7430 C   0  0  0  0  0  2  0  0  0  0  0  0
   15.2290  -23.4140  -12.8410 C   0  0  0  0  0  0  0  0  0  0  0  0
   16.2480  -23.5690  -11.8800 C   0  0  0  0  0  3  0  0  0  0  0  0
   17.3840  -24.3460  -12.1690 C   0  0  0  0  0  3  0  0  0  0  0  0
   15.3610  -24.0400  -14.0990 C   0  0  0  0  0  3  0  0  0  0  0  0
   16.4980  -24.8180  -14.3870 C   0  0  0  0  0  3  0  0  0  0  0  0
   17.5160  -24.9760  -13.4250 C   0  0  0  0  0  0  0  0  0  0  0  0
   12.1520  -24.0500  -13.5800 C   0  0  0  0  0  1  0  0  0  0  0  0
   12.7280  -22.8830  -12.8010 C   0  0  0  0  0  0  0  0  0  0  0  0
   11.8480  -21.9670  -12.2650 N   0  0  0  0  0  0  0  0  0  0  0  0
   12.4070  -20.9870  -11.3420 C   0  0  0  0  0  2  0  0  0  0  0  0
   14.1960  -21.1740  -11.5720 S   0  0  0  0  0  0  0  0  0  0  0  0
   14.0130  -22.6630  -12.4870 C   0  0  0  0  0  0  0  0  0  0  0  0
   10.8390  -22.0670  -12.3230 H   0  0  0  0  0  0  0  0  0  0  0  0
   23.1840  -22.0530  -10.6640 O   0  0  0  0  0  0  0  0  0  0  0  0
   23.4430  -22.9670  -10.7230 H   0  0  0  0  0  0  0  0  0  0  0  0
   24.7560  -22.8400  -16.5230 C   0  0  1  0  0  0  0  0  0  0  0  0
   26.0600  -22.1920  -17.0490 C   0  0  0  0  0  1  0  0  0  0  0  0
   24.2920  -23.8710  -17.5830 C   0  0  0  0  0  1  0  0  0  0  0  0
   23.6970  -21.7200  -16.4470 C   0  0  0  0  0  1  0  0  0  0  0  0
   27.3280  -27.7360  -16.5070 C   0  0  0  0  0  2  0  0  0  0  0  0
   25.8010  -27.5900  -16.7670 C   0  0  0  0  0  2  0  0  0  0  0  0
   25.4230  -27.8150  -18.1840 N   0  0  0  0  0  4  0  0  0  0  0  0
   25.9210  -27.1520  -18.7590 H   0  0  0  0  0  0  0  0  0  0  0  0
   25.7170  -28.7300  -18.4830 H   0  0  0  0  0  0  0  0  0  0  0  0
   23.4610  -28.4080  -19.6400 C   0  0  0  0  0  2  0  0  0  0  0  0
   23.1280  -28.8850  -18.2400 C   0  0  0  0  0  3  0  0  0  0  0  0
   23.9700  -27.6370  -18.4410 C   0  0  0  0  0  3  0  0  0  0  0  0
   21.6830  -28.8380  -17.7550 C   0  0  0  0  0  2  0  0  0  0  0  0
   20.3800  -30.8230  -16.9660 C   0  0  0  0  0  0  0  0  0  0  0  0
   19.9750  -30.3350  -15.9050 O   0  0  0  0  0  0  0  0  0  0  0  0
   21.0080  -30.1200  -17.9200 N   0  0  0  0  0  0  0  0  0  0  0  0
   21.2680  -30.6400  -18.7480 H   0  0  0  0  0  0  0  0  0  0  0  0
   20.3490  -32.3360  -17.1990 C   0  0  0  0  0  2  0  0  0  0  0  0
   21.0040  -33.1280  -16.0400 C   0  0  0  0  0  3  0  0  0  0  0  0
   22.3710  -32.6500  -15.7950 N   0  0  0  0  0  0  0  0  0  0  0  0
   21.0210  -34.6260  -16.2710 C   0  0  0  0  0  0  0  0  0  0  0  0
   20.7130  -35.2650  -17.4080 N   0  0  0  0  0  0  0  0  0  0  0  0
   20.9550  -36.6020  -17.1610 N   0  0  0  0  0  0  0  0  0  0  0  0
   21.4050  -36.6640  -15.9050 C   0  0  0  0  0  0  0  0  0  0  0  0
   21.8480  -37.9380  -15.2530 C   0  0  0  0  0  1  0  0  0  0  0  0
   21.4410  -35.4570  -15.2970 N   0  0  0  0  0  0  0  0  0  0  0  0
   21.8060  -35.0920  -13.9880 C   0  0  0  0  0  0  0  0  0  0  0  0
   21.4000  -35.9800  -12.5530 S   0  0  0  0  0  0  0  0  0  0  0  0
   22.1150  -34.7560  -11.5410 C   0  0  0  0  0  0  0  0  0  0  0  0
   22.0990  -34.9290  -10.0550 C   0  0  0  0  0  1  0  0  0  0  0  0
   22.6200  -33.7060  -12.2770 C   0  0  0  0  0  0  0  0  0  0  0  0
   23.2290  -32.4920  -11.6260 C   0  0  0  0  0  1  0  0  0  0  0  0
   22.4760  -33.9230  -13.6940 C   0  0  0  0  0  0  0  0  0  0  0  0
   23.0100  -32.9830  -14.7360 C   0  0  0  0  0  0  0  0  0  0  0  0
   24.3680  -32.4260  -14.5540 C   0  0  0  0  0  0  0  0  0  0  0  0
   25.4190  -33.2700  -14.1300 C   0  0  0  0  0  3  0  0  0  0  0  0
   26.7080  -32.7440  -13.9280 C   0  0  0  0  0  3  0  0  0  0  0  0
   26.9490  -31.3730  -14.1380 C   0  0  0  0  0  0  0  0  0  0  0  0
   28.5210  -30.7150  -13.8840 Cl  0  0  0  0  0  0  0  0  0  0  0  0
   25.9010  -30.5320  -14.5540 C   0  0  0  0  0  3  0  0  0  0  0  0
   24.6140  -31.0560  -14.7780 C   0  0  0  0  0  3  0  0  0  0  0  0
  2  8  1  0
  2  3  1  0
  3  4  2  0
  5  1  1  0
  5  3  1  0
  6  2  1  0
  7  5  1  0
  8 14  1  0
  9 17  1  0
  9 10  1  0
 10 11  1  0
 11 34  1  0
 12 11  1  0
 13 12  1  0
 13  9  1  0
 14 13  1  0
 15 14  2  0
 16 19  1  0
 17 16  1  0
 18 17  2  0
 20 26  1  0
 20 16  1  0
 21 32  1  0
 21 22  1  0
 23 22  2  0
 24 21  2  0
 25 24  1  0
 25 26  2  0
 26 23  1  0
 27 28  1  0
 28 32  2  0
 28 29  1  0
 29 30  1  0
 31 30  1  0
 32 31  1  0
 33 29  1  0
 35 34  1  0
 36 39  1  1
 36  8  1  0
 37 36  1  0
 38 36  1  0
 40  1  1  0
 41 40  1  0
 42 41  1  0
 43 42  1  0
 44 42  1  0
 45 47  1  0
 45 46  1  0
 46 48  1  0
 47 46  1  0
 47 42  1  0
 49 50  2  0
 51 48  1  0
 51 49  1  0
 52 51  1  0
 53 49  1  0
 54 53  1  0
 54 55  1  0
 55 69  2  0
 56 54  1  0
 56 61  1  0
 57 58  1  0
 57 56  2  0
 58 59  2  0
 59 61  1  0
 59 60  1  0
 61 62  1  0
 62 68  2  0
 62 63  1  0
 63 64  1  0
 64 65  1  0
 66 67  1  0
 66 64  2  0
 68 66  1  0
 69 70  1  0
 69 68  1  0
 70 71  1  0
 71 72  2  0
 73 72  1  0
 73 74  1  0
 75 73  2  0
 76 70  2  0
 76 75  1  0
M  ISO  4   3 101   5 101  49 100  51 100
M  END
>  <TORSDO>  (189) 
F 18

>  <SCORE>  (189) 
-12.206

>  <name>  (189) 
188

>  <ligand_id>  (189) 
188

>  <original_smiles>  (189) 
[H]OC1([H])C([H])([H])N(C(=O)C([H])(N([H])C(=O)N([H])C([H])([H])C([H])([H])C([H])([H])[N+]([H])([H])C2([H])C([H])([H])C2([H])C([H])([H])N([H])C(=O)C([H])([H])C2([H])N=C(c3c([H])c([H])c(Cl)c([H])c3[H])c3c(sc(C([H])([H])[H])c3C([H])([H])[H])-n3c(C([H])([H])[H])nnc32)C(C([H])([H])[H])(C([H])([H])[H])C([H])([H])[H])C([H])(C(=O)N([H])C([H])([H])c2c([H])c([H])c(C3=C(C([H])([H])[H])N([H])C([H])([H])S3)c([H])c2[H])C1([H])[H]

>  <smiles>  (189) 
[H]OC1([H])C([H])([H])N(C(=O)C([H])(N([H])C(=O)N([H])C([H])([H])C([H])([H])C([H])([H])[N+]([H])([H])C2([H])C([H])([H])C2([H])C([H])([H])N([H])C(=O)C([H])([H])C2([H])N=C(c3c([H])c([H])c(Cl)c([H])c3[H])c3c(sc(C([H])([H])[H])c3C([H])([H])[H])-n3c(C([H])([H])[H])nnc32)C(C([H])([H])[H])(C([H])([H])[H])C([H])([H])[H])C([H])(C(=O)N([H])C([H])([H])c2c([H])c([H])c(C3=C(C([H])([H])[H])N([H])C([H])([H])S3)c([H])c2[H])C1([H])[H]

$$$$
189:0:0
     RDKit          3D

 76 83  0  0  1  0  0  0  0  0999 V2000
   25.4420  -27.5080  -16.5740 C   0  0  0  0  0  0  0  0  0  0  0  0
   24.7190  -27.5620  -15.5820 O   0  0  0  0  0  0  0  0  0  0  0  0
   23.3450  -28.4600  -19.5240 C   0  0  0  0  0  3  0  0  0  0  0  0
   24.8890  -27.8510  -17.9410 C   0  0  0  0  0  0  0  0  0  0  0  0
   23.5220  -28.3610  -18.1950 C   0  0  0  0  0  0  0  0  0  0  0  0
   25.5220  -27.7160  -19.1340 C   0  0  0  0  0  0  0  0  0  0  0  0
   24.5610  -28.0510  -20.1860 C   0  0  0  0  0  0  0  0  0  0  0  0
   26.9220  -27.2800  -19.5360 C   0  0  0  0  0  1  0  0  0  0  0  0
   24.7310  -27.9880  -21.4070 O   0  0  0  0  0  0  0  0  0  0  0  0
   22.4420  -28.8540  -17.2130 C   0  0  0  0  0  2  0  0  0  0  0  0
   20.9490  -30.9050  -17.1060 C   0  0  0  0  0  0  0  0  0  0  0  0
   20.2280  -30.5540  -16.1720 O   0  0  0  0  0  0  0  0  0  0  0  0
   21.7790  -30.0610  -17.7460 N   0  0  0  0  0  0  0  0  0  0  0  0
   22.2540  -30.4830  -18.5280 H   0  0  0  0  0  0  0  0  0  0  0  0
   21.1340  -32.3970  -17.4320 C   0  0  0  0  0  2  0  0  0  0  0  0
   21.6460  -33.1720  -16.1820 C   0  0  0  0  0  3  0  0  0  0  0  0
   23.0180  -32.7580  -15.8650 N   0  0  0  0  0  0  0  0  0  0  0  0
   21.5840  -34.6830  -16.2770 C   0  0  0  0  0  0  0  0  0  0  0  0
   21.3320  -35.4090  -17.3760 N   0  0  0  0  0  0  0  0  0  0  0  0
   21.4830  -36.7290  -16.9940 N   0  0  0  0  0  0  0  0  0  0  0  0
   21.8340  -36.6970  -15.7020 C   0  0  0  0  0  0  0  0  0  0  0  0
   22.1610  -37.9230  -14.9060 C   0  0  0  0  0  1  0  0  0  0  0  0
   21.8860  -35.4430  -15.2070 N   0  0  0  0  0  0  0  0  0  0  0  0
   22.1750  -34.9820  -13.9040 C   0  0  0  0  0  0  0  0  0  0  0  0
   21.6290  -35.7190  -12.4310 S   0  0  0  0  0  0  0  0  0  0  0  0
   22.3270  -34.4420  -11.4760 C   0  0  0  0  0  0  0  0  0  0  0  0
   22.1990  -34.4660   -9.9870 C   0  0  0  0  0  1  0  0  0  0  0  0
   22.9400  -33.4880  -12.2630 C   0  0  0  0  0  0  0  0  0  0  0  0
   23.5630  -32.2470  -11.6760 C   0  0  0  0  0  1  0  0  0  0  0  0
   22.8890  -33.8290  -13.6610 C   0  0  0  0  0  0  0  0  0  0  0  0
   23.5520  -33.0170  -14.7320 C   0  0  0  0  0  0  0  0  0  0  0  0
   24.9190  -32.5040  -14.4900 C   0  0  0  0  0  0  0  0  0  0  0  0
   25.8910  -33.3310  -13.8860 C   0  0  0  0  0  3  0  0  0  0  0  0
   27.1850  -32.8360  -13.6370 C   0  0  0  0  0  3  0  0  0  0  0  0
   27.5150  -31.5180  -13.9970 C   0  0  0  0  0  0  0  0  0  0  0  0
   29.0960  -30.9020  -13.6980 Cl  0  0  0  0  0  0  0  0  0  0  0  0
   26.5470  -30.6900  -14.5910 C   0  0  0  0  0  3  0  0  0  0  0  0
   25.2530  -31.1770  -14.8350 C   0  0  0  0  0  3  0  0  0  0  0  0
   26.9070  -27.0140  -16.3470 C   0  0  0  0  0  2  0  0  0  0  0  0
   27.3150  -26.4300  -14.9390 C   0  0  0  0  0  2  0  0  0  0  0  0
   25.9520  -24.4930  -15.4020 N   0  0  0  0  0  0  0  0  0  0  0  0
   26.8950  -24.9750  -14.6030 C   0  0  0  0  0  0  0  0  0  0  0  0
   27.3160  -24.3630  -13.6110 O   0  0  0  0  0  0  0  0  0  0  0  0
   25.6170  -25.1500  -16.0910 H   0  0  0  0  0  0  0  0  0  0  0  0
   25.0310  -23.3860  -15.1630 C   0  0  0  0  0  3  0  0  0  0  0  0
   21.8720  -23.8410  -12.8620 C   0  0  0  0  0  3  0  0  0  0  0  0
   21.3350  -22.6540  -12.0510 C   0  0  0  0  0  2  0  0  0  0  0  0
   22.5530  -21.7880  -11.7970 C   0  0  0  0  0  3  0  0  0  0  0  0
   23.4680  -22.0270  -12.9960 C   0  0  0  0  0  2  0  0  0  0  0  0
   23.0680  -23.3210  -13.5600 N   0  0  0  0  0  0  0  0  0  0  0  0
   23.7620  -24.0080  -14.5010 C   0  0  0  0  0  0  0  0  0  0  0  0
   23.4320  -25.1520  -14.8300 O   0  0  0  0  0  0  0  0  0  0  0  0
   19.9970  -25.3610  -13.2310 N   0  0  0  0  0  0  0  0  0  0  0  0
   20.7490  -24.3900  -13.7600 C   0  0  0  0  0  0  0  0  0  0  0  0
   20.5340  -23.9050  -14.8730 O   0  0  0  0  0  0  0  0  0  0  0  0
   20.2520  -25.7090  -12.3170 H   0  0  0  0  0  0  0  0  0  0  0  0
   18.7770  -25.8900  -13.8140 C   0  0  0  0  0  2  0  0  0  0  0  0
   15.2580  -23.5250  -12.8260 C   0  0  0  0  0  0  0  0  0  0  0  0
   16.2580  -23.7490  -11.8560 C   0  0  0  0  0  3  0  0  0  0  0  0
   17.3950  -24.5140  -12.1720 C   0  0  0  0  0  3  0  0  0  0  0  0
   15.4130  -24.0660  -14.1190 C   0  0  0  0  0  3  0  0  0  0  0  0
   16.5540  -24.8270  -14.4380 C   0  0  0  0  0  3  0  0  0  0  0  0
   17.5530  -25.0530  -13.4680 C   0  0  0  0  0  0  0  0  0  0  0  0
   12.2070  -24.0450  -13.7470 C   0  0  0  0  0  1  0  0  0  0  0  0
   12.7610  -22.9710  -12.8300 C   0  0  0  0  0  0  0  0  0  0  0  0
   11.8700  -22.0970  -12.2410 N   0  0  0  0  0  0  0  0  0  0  0  0
   12.4030  -21.2300  -11.1950 C   0  0  0  0  0  2  0  0  0  0  0  0
   14.1960  -21.4090  -11.3810 S   0  0  0  0  0  0  0  0  0  0  0  0
   14.0340  -22.7990  -12.4460 C   0  0  0  0  0  0  0  0  0  0  0  0
   10.8630  -22.1780  -12.3440 H   0  0  0  0  0  0  0  0  0  0  0  0
   23.2180  -22.2100  -10.6170 O   0  0  0  0  0  0  0  0  0  0  0  0
   23.5070  -23.1070  -10.7420 H   0  0  0  0  0  0  0  0  0  0  0  0
   24.7410  -22.7140  -16.5590 C   0  0  1  0  0  0  0  0  0  0  0  0
   26.0040  -21.9570  -17.0210 C   0  0  0  0  0  1  0  0  0  0  0  0
   24.3580  -23.7200  -17.6720 C   0  0  0  0  0  1  0  0  0  0  0  0
   23.6040  -21.6760  -16.4680 C   0  0  0  0  0  1  0  0  0  0  0  0
  1 39  1  0
  1  2  2  0
  3  5  2  0
  4  1  1  0
  5  4  1  0
  5 10  1  0
  6  4  2  0
  7  3  1  0
  7  6  1  0
  8  6  1  0
  9  7  2  0
 11 12  2  0
 13 10  1  0
 13 11  1  0
 14 13  1  0
 15 11  1  0
 16 15  1  0
 16 17  1  0
 17 31  2  0
 18 16  1  0
 18 23  1  0
 19 20  1  0
 19 18  2  0
 20 21  2  0
 21 23  1  0
 21 22  1  0
 23 24  1  0
 24 30  2  0
 24 25  1  0
 25 26  1  0
 26 27  1  0
 28 29  1  0
 28 26  2  0
 30 28  1  0
 31 32  1  0
 31 30  1  0
 32 33  1  0
 33 34  2  0
 35 36  1  0
 35 34  1  0
 37 35  2  0
 38 37  1  0
 38 32  2  0
 39 40  1  0
 40 42  1  0
 41 45  1  0
 41 42  1  0
 42 43  2  0
 44 41  1  0
 45 51  1  0
 46 54  1  0
 46 47  1  0
 47 48  1  0
 48 71  1  0
 49 48  1  0
 50 49  1  0
 50 46  1  0
 51 50  1  0
 52 51  2  0
 53 56  1  0
 54 53  1  0
 55 54  2  0
 57 63  1  0
 57 53  1  0
 58 69  1  0
 58 59  1  0
 60 59  2  0
 61 58  2  0
 62 61  1  0
 62 63  2  0
 63 60  1  0
 64 65  1  0
 65 69  2  0
 65 66  1  0
 66 67  1  0
 68 67  1  0
 69 68  1  0
 70 66  1  0
 72 71  1  0
 73 76  1  1
 73 45  1  0
 74 73  1  0
 75 73  1  0
M  ISO  4  11 100  13 100  40 101  42 101
M  END
>  <TORSDO>  (190) 
F 17

>  <SCORE>  (190) 
-13.386

>  <name>  (190) 
189

>  <ligand_id>  (190) 
189

>  <original_smiles>  (190) 
[H]OC1([H])C([H])([H])N(C(=O)C([H])(N([H])C(=O)C([H])([H])C([H])([H])C(=O)C2=C(C([H])([H])[H])C(=O)C([H])=C2C([H])([H])N([H])C(=O)C([H])([H])C2([H])N=C(c3c([H])c([H])c(Cl)c([H])c3[H])c3c(sc(C([H])([H])[H])c3C([H])([H])[H])-n3c(C([H])([H])[H])nnc32)C(C([H])([H])[H])(C([H])([H])[H])C([H])([H])[H])C([H])(C(=O)N([H])C([H])([H])c2c([H])c([H])c(C3=C(C([H])([H])[H])N([H])C([H])([H])S3)c([H])c2[H])C1([H])[H]

>  <smiles>  (190) 
[H]OC1([H])C([H])([H])N(C(=O)C([H])(N([H])C(=O)C([H])([H])C([H])([H])C(=O)C2=C(C([H])([H])[H])C(=O)C([H])=C2C([H])([H])N([H])C(=O)C([H])([H])C2([H])N=C(c3c([H])c([H])c(Cl)c([H])c3[H])c3c(sc(C([H])([H])[H])c3C([H])([H])[H])-n3c(C([H])([H])[H])nnc32)C(C([H])([H])[H])(C([H])([H])[H])C([H])([H])[H])C([H])(C(=O)N([H])C([H])([H])c2c([H])c([H])c(C3=C(C([H])([H])[H])N([H])C([H])([H])S3)c([H])c2[H])C1([H])[H]

$$$$
190:0:0
     RDKit          3D

 79 85  0  0  1  0  0  0  0  0999 V2000
   25.2300  -27.0070  -16.4170 C   0  0  1  0  0  0  0  0  0  0  0  0
   25.7070  -24.3120  -15.8890 N   0  0  0  0  0  0  0  0  0  0  0  0
   26.6100  -25.1140  -15.3730 C   0  0  0  0  0  0  0  0  0  0  0  0
   27.4010  -24.7510  -14.4880 O   0  0  0  0  0  0  0  0  0  0  0  0
   26.5050  -26.3290  -15.9670 N   0  0  0  0  0  0  0  0  0  0  0  0
   25.1680  -24.8110  -16.5950 H   0  0  0  0  0  0  0  0  0  0  0  0
   27.1930  -27.0040  -15.6670 H   0  0  0  0  0  0  0  0  0  0  0  0
   24.8720  -23.3030  -15.2840 C   0  0  0  0  0  3  0  0  0  0  0  0
   21.8070  -23.9520  -12.8910 C   0  0  0  0  0  3  0  0  0  0  0  0
   21.3210  -22.8290  -11.9660 C   0  0  0  0  0  2  0  0  0  0  0  0
   22.5660  -22.0120  -11.6840 C   0  0  0  0  0  3  0  0  0  0  0  0
   23.4320  -22.1560  -12.9320 C   0  0  0  0  0  2  0  0  0  0  0  0
   22.9830  -23.3830  -13.5860 N   0  0  0  0  0  0  0  0  0  0  0  0
   23.6320  -23.9830  -14.6040 C   0  0  0  0  0  0  0  0  0  0  0  0
   23.2470  -25.0820  -14.9860 O   0  0  0  0  0  0  0  0  0  0  0  0
   19.8650  -25.3850  -13.2830 N   0  0  0  0  0  0  0  0  0  0  0  0
   20.6420  -24.4200  -13.7870 C   0  0  0  0  0  0  0  0  0  0  0  0
   20.4230  -23.8790  -14.8740 O   0  0  0  0  0  0  0  0  0  0  0  0
   20.1290  -25.7910  -12.3950 H   0  0  0  0  0  0  0  0  0  0  0  0
   18.6050  -25.8360  -13.8610 C   0  0  0  0  0  2  0  0  0  0  0  0
   15.2420  -23.2800  -12.8080 C   0  0  0  0  0  0  0  0  0  0  0  0
   16.2710  -23.5180  -11.8740 C   0  0  0  0  0  3  0  0  0  0  0  0
   17.3590  -24.3410  -12.2120 C   0  0  0  0  0  3  0  0  0  0  0  0
   15.3150  -23.8710  -14.0870 C   0  0  0  0  0  3  0  0  0  0  0  0
   16.4060  -24.6950  -14.4250 C   0  0  0  0  0  3  0  0  0  0  0  0
   17.4340  -24.9350  -13.4910 C   0  0  0  0  0  0  0  0  0  0  0  0
   12.1240  -23.7180  -13.5130 C   0  0  0  0  0  1  0  0  0  0  0  0
   12.7750  -22.6160  -12.7010 C   0  0  0  0  0  0  0  0  0  0  0  0
   11.9550  -21.6750  -12.1130 N   0  0  0  0  0  0  0  0  0  0  0  0
   12.5810  -20.7700  -11.1580 C   0  0  0  0  0  2  0  0  0  0  0  0
   14.3530  -21.0390  -11.4340 S   0  0  0  0  0  0  0  0  0  0  0  0
   14.0750  -22.4780  -12.4030 C   0  0  0  0  0  0  0  0  0  0  0  0
   10.9410  -21.7170  -12.1570 H   0  0  0  0  0  0  0  0  0  0  0  0
   23.2700  -22.5520  -10.5780 O   0  0  0  0  0  0  0  0  0  0  0  0
   23.5040  -23.4530  -10.7800 H   0  0  0  0  0  0  0  0  0  0  0  0
   24.5040  -22.3330  -16.4680 C   0  0  1  0  0  0  0  0  0  0  0  0
   25.7890  -21.6090  -16.9330 C   0  0  0  0  0  1  0  0  0  0  0  0
   23.8970  -23.0210  -17.7170 C   0  0  0  0  0  1  0  0  0  0  0  0
   23.5020  -21.2600  -16.0110 C   0  0  0  0  0  1  0  0  0  0  0  0
   25.3420  -28.0930  -17.5440 C   0  0  0  0  0  0  0  0  0  0  0  0
   24.1640  -28.3790  -18.1370 N   0  0  0  0  0  0  0  0  0  0  0  0
   26.4130  -28.5890  -17.9050 O   0  0  0  0  0  0  0  0  0  0  0  0
   23.4860  -27.6860  -17.8220 H   0  0  0  0  0  0  0  0  0  0  0  0
   23.5260  -29.6470  -18.4630 C   0  0  0  0  0  2  0  0  0  0  0  0
   20.6230  -31.4160  -16.9210 C   0  0  0  0  0  0  0  0  0  0  0  0
   20.1060  -30.8700  -15.9360 O   0  0  0  0  0  0  0  0  0  0  0  0
   22.1290  -29.6870  -17.7900 C   0  0  0  0  0  0  0  0  0  0  0  0
   21.5190  -30.8800  -17.7810 N   0  0  0  0  0  0  0  0  0  0  0  0
   21.6430  -28.6570  -17.3120 O   0  0  0  0  0  0  0  0  0  0  0  0
   21.9620  -31.5700  -18.3670 H   0  0  0  0  0  0  0  0  0  0  0  0
   20.5140  -32.9270  -17.1060 C   0  0  0  0  0  2  0  0  0  0  0  0
   21.1000  -33.6630  -15.8730 C   0  0  0  0  0  3  0  0  0  0  0  0
   22.4430  -33.1580  -15.5510 N   0  0  0  0  0  0  0  0  0  0  0  0
   21.1580  -35.1680  -16.0260 C   0  0  0  0  0  0  0  0  0  0  0  0
   20.9700  -35.8670  -17.1510 N   0  0  0  0  0  0  0  0  0  0  0  0
   21.2270  -37.1830  -16.8170 N   0  0  0  0  0  0  0  0  0  0  0  0
   21.5670  -37.1700  -15.5240 C   0  0  0  0  0  0  0  0  0  0  0  0
   21.9880  -38.3940  -14.7700 C   0  0  0  0  0  1  0  0  0  0  0  0
   21.5180  -35.9350  -14.9810 N   0  0  0  0  0  0  0  0  0  0  0  0
   21.7640  -35.4940  -13.6650 C   0  0  0  0  0  0  0  0  0  0  0  0
   21.2600  -36.3130  -12.2230 S   0  0  0  0  0  0  0  0  0  0  0  0
   21.8580  -35.0170  -11.2240 C   0  0  0  0  0  0  0  0  0  0  0  0
   21.7200  -35.1120   -9.7390 C   0  0  0  0  0  1  0  0  0  0  0  0
   22.4020  -33.9940  -11.9720 C   0  0  0  0  0  0  0  0  0  0  0  0
   22.9270  -32.7260  -11.3480 C   0  0  0  0  0  1  0  0  0  0  0  0
   22.3840  -34.2950  -13.3810 C   0  0  0  0  0  0  0  0  0  0  0  0
   22.9910  -33.4090  -14.4220 C   0  0  0  0  0  0  0  0  0  0  0  0
   24.3210  -32.8210  -14.1540 C   0  0  0  0  0  0  0  0  0  0  0  0
   25.3350  -33.6110  -13.5660 C   0  0  0  0  0  3  0  0  0  0  0  0
   26.5970  -33.0570  -13.2740 C   0  0  0  0  0  3  0  0  0  0  0  0
   26.8470  -31.7080  -13.5590 C   0  0  0  0  0  0  0  0  0  0  0  0
   28.3700  -30.9750  -13.2200 Cl  0  0  0  0  0  0  0  0  0  0  0  0
   25.8370  -30.9330  -14.1210 C   0  0  0  0  0  3  0  0  0  0  0  0
   24.5760  -31.4690  -14.4430 C   0  0  0  0  0  3  0  0  0  0  0  0
   24.6110  -27.6520  -15.1380 C   0  0  0  0  0  0  0  0  0  0  0  0
   23.3740  -27.8170  -15.1200 O   0  0  0  0  0  0  0  0  0  0  0  0
   25.3250  -27.8300  -14.1240 O   0  0  0  0  0  1  0  0  0  0  0  0
   24.2140  -26.1690  -16.9250 O   0  0  0  0  0  0  0  0  0  0  0  0
   23.5080  -26.3180  -16.2800 H   0  0  0  0  0  0  0  0  0  0  0  0
  1 40  1  0
  1  5  1  0
  1 75  1  0
  2  3  1  0
  2  8  1  0
  3  4  2  0
  5  7  1  0
  5  3  1  0
  6  2  1  0
  8 14  1  0
  9 17  1  0
  9 10  1  0
 10 11  1  0
 11 34  1  0
 12 11  1  0
 13 12  1  0
 13  9  1  0
 14 13  1  0
 15 14  2  0
 16 19  1  0
 17 16  1  0
 18 17  2  0
 20 26  1  0
 20 16  1  0
 21 32  1  0
 21 22  1  0
 23 22  2  0
 24 21  2  0
 25 24  1  0
 25 26  2  0
 26 23  1  0
 27 28  1  0
 28 32  2  0
 28 29  1  0
 29 30  1  0
 31 30  1  0
 32 31  1  0
 33 29  1  0
 35 34  1  0
 36 39  1  1
 36  8  1  0
 37 36  1  0
 38 36  1  0
 41 43  1  0
 41 40  1  0
 42 40  2  0
 44 41  1  0
 44 47  1  0
 45 46  2  0
 47 48  1  0
 47 49  2  0
 48 45  1  0
 50 48  1  0
 51 45  1  0
 52 51  1  0
 52 53  1  0
 53 67  2  0
 54 52  1  0
 54 59  1  0
 55 56  1  0
 55 54  2  0
 56 57  2  0
 57 59  1  0
 57 58  1  0
 59 60  1  0
 60 66  2  0
 60 61  1  0
 61 62  1  0
 62 63  1  0
 64 65  1  0
 64 62  2  0
 66 64  1  0
 67 68  1  0
 67 66  1  0
 68 69  1  0
 69 70  2  0
 71 70  1  0
 71 72  1  0
 73 71  2  0
 74 68  2  0
 74 73  1  0
 75 76  2  0
 75 77  1  0
  1 78  1  6
 78 79  1  0
M  ISO  4   3 101   5 101  45 100  48 100
M  END
>  <TORSDO>  (191) 
F 17

>  <SCORE>  (191) 
-9.599

>  <name>  (191) 
190

>  <ligand_id>  (191) 
190

>  <original_smiles>  (191) 
[H]OC(C(=O)[O-])(C(=O)N([H])C([H])([H])C(=O)N([H])C(=O)C([H])([H])C1([H])N=C(c2c([H])c([H])c(Cl)c([H])c2[H])c2c(sc(C([H])([H])[H])c2C([H])([H])[H])-n2c(C([H])([H])[H])nnc21)N([H])C(=O)N([H])C([H])(C(=O)N1C([H])([H])C([H])(O[H])C([H])([H])C1([H])C(=O)N([H])C([H])([H])c1c([H])c([H])c(C2=C(C([H])([H])[H])N([H])C([H])([H])S2)c([H])c1[H])C(C([H])([H])[H])(C([H])([H])[H])C([H])([H])[H]

>  <smiles>  (191) 
[H]OC(C(=O)[O-])(C(=O)N([H])C([H])([H])C(=O)N([H])C(=O)C([H])([H])C1([H])N=C(c2c([H])c([H])c(Cl)c([H])c2[H])c2c(sc(C([H])([H])[H])c2C([H])([H])[H])-n2c(C([H])([H])[H])nnc21)N([H])C(=O)N([H])C([H])(C(=O)N1C([H])([H])C([H])(O[H])C([H])([H])C1([H])C(=O)N([H])C([H])([H])c1c([H])c([H])c(C2=C(C([H])([H])[H])N([H])C([H])([H])S2)c([H])c1[H])C(C([H])([H])[H])(C([H])([H])[H])C([H])([H])[H]

$$$$
191:0:0
     RDKit          3D

 78 84  0  0  1  0  0  0  0  0999 V2000
   25.2040  -24.1460  -17.1490 N   0  0  0  0  0  0  0  0  0  0  0  0
   26.1450  -24.6760  -16.3800 C   0  0  0  0  0  0  0  0  0  0  0  0
   26.8990  -24.0340  -15.6320 O   0  0  0  0  0  0  0  0  0  0  0  0
   24.9780  -26.7230  -15.9000 C   0  0  0  0  0  3  0  0  0  0  0  0
   23.7690  -27.5150  -17.9670 C   0  0  0  0  0  0  0  0  0  0  0  0
   26.0830  -26.1080  -16.4290 N   0  0  0  0  0  0  0  0  0  0  0  0
   23.9880  -27.4160  -16.5500 N   0  0  0  0  0  0  0  0  0  0  0  0
   24.3780  -26.7530  -18.7260 O   0  0  0  0  0  0  0  0  0  0  0  0
   24.8040  -24.7500  -17.8560 H   0  0  0  0  0  0  0  0  0  0  0  0
   26.9050  -26.5780  -16.0840 H   0  0  0  0  0  0  0  0  0  0  0  0
   23.4030  -27.9210  -15.9020 H   0  0  0  0  0  0  0  0  0  0  0  0
   22.8810  -28.7110  -18.5420 C   0  0  0  0  0  0  0  0  0  0  0  0
   21.8800  -29.2670  -17.8160 N   0  0  0  0  0  0  0  0  0  0  0  0
   23.1560  -29.1460  -19.6660 O   0  0  0  0  0  0  0  0  0  0  0  0
   21.5330  -28.9850  -16.9080 H   0  0  0  0  0  0  0  0  0  0  0  0
   20.4850  -31.2620  -17.5300 C   0  0  0  0  0  0  0  0  0  0  0  0
   19.9490  -30.8390  -16.5050 O   0  0  0  0  0  0  0  0  0  0  0  0
   21.2380  -30.4610  -18.3180 N   0  0  0  0  0  0  0  0  0  0  0  0
   21.7610  -30.8230  -19.1070 H   0  0  0  0  0  0  0  0  0  0  0  0
   20.5210  -32.7810  -17.8100 C   0  0  0  0  0  2  0  0  0  0  0  0
   21.1300  -33.5400  -16.5940 C   0  0  0  0  0  3  0  0  0  0  0  0
   22.3600  -32.8580  -16.1860 N   0  0  0  0  0  0  0  0  0  0  0  0
   21.4220  -35.0200  -16.7970 C   0  0  0  0  0  0  0  0  0  0  0  0
   21.3690  -35.7020  -17.9480 N   0  0  0  0  0  0  0  0  0  0  0  0
   21.8150  -36.9780  -17.6500 N   0  0  0  0  0  0  0  0  0  0  0  0
   22.1170  -36.9640  -16.3470 C   0  0  0  0  0  0  0  0  0  0  0  0
   22.7010  -38.1410  -15.6230 C   0  0  0  0  0  1  0  0  0  0  0  0
   21.8610  -35.7710  -15.7640 N   0  0  0  0  0  0  0  0  0  0  0  0
   22.0020  -35.3600  -14.4230 C   0  0  0  0  0  0  0  0  0  0  0  0
   21.5970  -36.3100  -13.0280 S   0  0  0  0  0  0  0  0  0  0  0  0
   21.9590  -34.9810  -11.9620 C   0  0  0  0  0  0  0  0  0  0  0  0
   21.8000  -35.1560  -10.4860 C   0  0  0  0  0  1  0  0  0  0  0  0
   22.3520  -33.8540  -12.6530 C   0  0  0  0  0  0  0  0  0  0  0  0
   22.6520  -32.5470  -11.9640 C   0  0  0  0  0  1  0  0  0  0  0  0
   22.4200  -34.0940  -14.0700 C   0  0  0  0  0  0  0  0  0  0  0  0
   22.9090  -33.0800  -15.0530 C   0  0  0  0  0  0  0  0  0  0  0  0
   24.1140  -32.2920  -14.7220 C   0  0  0  0  0  0  0  0  0  0  0  0
   25.1570  -32.8700  -13.9690 C   0  0  0  0  0  3  0  0  0  0  0  0
   26.2910  -32.1060  -13.6330 C   0  0  0  0  0  3  0  0  0  0  0  0
   26.3910  -30.7700  -14.0590 C   0  0  0  0  0  0  0  0  0  0  0  0
   27.7720  -29.8240  -13.6490 Cl  0  0  0  0  0  0  0  0  0  0  0  0
   25.3630  -30.1980  -14.8250 C   0  0  0  0  0  3  0  0  0  0  0  0
   24.2210  -30.9550  -15.1490 C   0  0  0  0  0  3  0  0  0  0  0  0
   24.8890  -26.7630  -14.3640 C   0  0  0  0  0  0  0  0  0  0  0  0
   23.6610  -27.3400  -13.6690 C   0  0  0  0  0  1  0  0  0  0  0  0
   25.8290  -26.3370  -13.6900 O   0  0  0  0  0  0  0  0  0  0  0  0
   24.3320  -23.0430  -16.7640 C   0  0  0  0  0  3  0  0  0  0  0  0
   21.6720  -23.3870  -13.8770 C   0  0  0  0  0  3  0  0  0  0  0  0
   21.3180  -22.1650  -13.0160 C   0  0  0  0  0  2  0  0  0  0  0  0
   22.5780  -21.3250  -13.0200 C   0  0  0  0  0  3  0  0  0  0  0  0
   23.2450  -21.6200  -14.3640 C   0  0  0  0  0  2  0  0  0  0  0  0
   22.7170  -22.9140  -14.8080 N   0  0  0  0  0  0  0  0  0  0  0  0
   23.2170  -23.6350  -15.8410 C   0  0  0  0  0  0  0  0  0  0  0  0
   22.8700  -24.8060  -16.0360 O   0  0  0  0  0  0  0  0  0  0  0  0
   19.7480  -24.8890  -13.8440 N   0  0  0  0  0  0  0  0  0  0  0  0
   20.3920  -23.9380  -14.5310 C   0  0  0  0  0  0  0  0  0  0  0  0
   19.9800  -23.4770  -15.5960 O   0  0  0  0  0  0  0  0  0  0  0  0
   20.1630  -25.2160  -12.9840 H   0  0  0  0  0  0  0  0  0  0  0  0
   18.4270  -25.4090  -14.1720 C   0  0  0  0  0  2  0  0  0  0  0  0
   15.1910  -22.9560  -12.6020 C   0  0  0  0  0  0  0  0  0  0  0  0
   16.3460  -23.1840  -11.8270 C   0  0  0  0  0  3  0  0  0  0  0  0
   17.3940  -23.9730  -12.3320 C   0  0  0  0  0  3  0  0  0  0  0  0
   15.0970  -23.5220  -13.8920 C   0  0  0  0  0  3  0  0  0  0  0  0
   16.1480  -24.3110  -14.3970 C   0  0  0  0  0  3  0  0  0  0  0  0
   17.3010  -24.5430  -13.6200 C   0  0  0  0  0  0  0  0  0  0  0  0
   12.0150  -23.4050  -12.9520 C   0  0  0  0  0  1  0  0  0  0  0  0
   12.7490  -22.3350  -12.1690 C   0  0  0  0  0  0  0  0  0  0  0  0
   11.9970  -21.4370  -11.4420 N   0  0  0  0  0  0  0  0  0  0  0  0
   12.7260  -20.5670  -10.5240 C   0  0  0  0  0  2  0  0  0  0  0  0
   14.4540  -20.7990  -11.0200 S   0  0  0  0  0  0  0  0  0  0  0  0
   14.0730  -22.1930  -12.0210 C   0  0  0  0  0  0  0  0  0  0  0  0
   10.9850  -21.4910  -11.3670 H   0  0  0  0  0  0  0  0  0  0  0  0
   23.4440  -21.7320  -11.9720 O   0  0  0  0  0  0  0  0  0  0  0  0
   23.6380  -22.6580  -12.0800 H   0  0  0  0  0  0  0  0  0  0  0  0
   23.7900  -22.4130  -18.0920 C   0  0  1  0  0  0  0  0  0  0  0  0
   24.9520  -21.6820  -18.8040 C   0  0  0  0  0  1  0  0  0  0  0  0
   23.2070  -23.4600  -19.0730 C   0  0  0  0  0  1  0  0  0  0  0  0
   22.6960  -21.3620  -17.8170 C   0  0  0  0  0  1  0  0  0  0  0  0
  1 47  1  0
  1  2  1  0
  2  3  2  0
  4 44  1  0
  5  7  1  0
  6  2  1  0
  6 10  1  0
  6  4  1  0
  7 11  1  0
  7  4  1  0
  8  5  2  0
  9  1  1  0
 12  5  1  0
 12 13  1  0
 13 15  1  0
 14 12  2  0
 16 17  2  0
 18 13  1  0
 18 16  1  0
 19 18  1  0
 20 16  1  0
 21 20  1  0
 21 22  1  0
 22 36  2  0
 23 21  1  0
 23 28  1  0
 24 25  1  0
 24 23  2  0
 25 26  2  0
 26 28  1  0
 26 27  1  0
 28 29  1  0
 29 35  2  0
 29 30  1  0
 30 31  1  0
 31 32  1  0
 33 34  1  0
 33 31  2  0
 35 33  1  0
 36 37  1  0
 36 35  1  0
 37 38  1  0
 38 39  2  0
 40 41  1  0
 40 39  1  0
 42 40  2  0
 43 42  1  0
 43 37  2  0
 44 46  2  0
 44 45  1  0
 47 53  1  0
 48 56  1  0
 48 49  1  0
 50 49  1  0
 50 73  1  0
 51 50  1  0
 52 51  1  0
 52 48  1  0
 53 52  1  0
 54 53  2  0
 55 58  1  0
 56 55  1  0
 57 56  2  0
 59 55  1  0
 59 65  1  0
 60 71  1  0
 60 61  1  0
 62 61  2  0
 63 60  2  0
 64 63  1  0
 64 65  2  0
 65 62  1  0
 66 67  1  0
 67 71  2  0
 67 68  1  0
 68 72  1  0
 68 69  1  0
 70 69  1  0
 71 70  1  0
 74 73  1  0
 75 78  1  1
 75 47  1  0
 76 75  1  0
 77 75  1  0
M  ISO  4   2 101   6 101  16 100  18 100
M  END
>  <TORSDO>  (192) 
F 14

>  <SCORE>  (192) 
-2.545

>  <name>  (192) 
191

>  <ligand_id>  (192) 
191

>  <original_smiles>  (192) 
[H]OC1([H])C([H])([H])N(C(=O)C([H])(N([H])C(=O)N([H])C(C(=O)C([H])([H])[H])=[N+]([H])C(=O)C(=O)N([H])N([H])C(=O)C([H])([H])C2([H])N=C(c3c([H])c([H])c(Cl)c([H])c3[H])c3c(sc(C([H])([H])[H])c3C([H])([H])[H])-n3c(C([H])([H])[H])nnc32)C(C([H])([H])[H])(C([H])([H])[H])C([H])([H])[H])C([H])(C(=O)N([H])C([H])([H])c2c([H])c([H])c(C3=C(C([H])([H])[H])N([H])C([H])([H])S3)c([H])c2[H])C1([H])[H]

>  <smiles>  (192) 
[H]OC1([H])C([H])([H])N(C(=O)C([H])(N([H])C(=O)N([H])C(C(=O)C([H])([H])[H])=[N+]([H])C(=O)C(=O)N([H])N([H])C(=O)C([H])([H])C2([H])N=C(c3c([H])c([H])c(Cl)c([H])c3[H])c3c(sc(C([H])([H])[H])c3C([H])([H])[H])-n3c(C([H])([H])[H])nnc32)C(C([H])([H])[H])(C([H])([H])[H])C([H])([H])[H])C([H])(C(=O)N([H])C([H])([H])c2c([H])c([H])c(C3=C(C([H])([H])[H])N([H])C([H])([H])S3)c([H])c2[H])C1([H])[H]

$$$$
192:0:0
     RDKit          3D

 75 82  0  0  1  0  0  0  0  0999 V2000
   25.8250  -24.6090  -15.5170 N   0  0  0  0  0  0  0  0  0  0  0  0
   26.7190  -25.1640  -14.7120 C   0  0  0  0  0  0  0  0  0  0  0  0
   27.1460  -24.6200  -13.6860 O   0  0  0  0  0  0  0  0  0  0  0  0
   26.9280  -26.4540  -15.0490 N   0  0  0  0  0  0  0  0  0  0  0  0
   25.5250  -25.1890  -16.2830 H   0  0  0  0  0  0  0  0  0  0  0  0
   27.3840  -26.9830  -14.3180 H   0  0  0  0  0  0  0  0  0  0  0  0
   27.3350  -26.8760  -19.3820 C   0  0  0  0  0  2  0  0  0  0  0  0
   28.5780  -26.7830  -18.5000 C   0  0  0  0  0  2  0  0  0  0  0  0
   26.2800  -27.7740  -18.7270 C   0  0  0  0  0  2  0  0  0  0  0  0
   28.1950  -26.2020  -17.1390 C   0  0  0  0  0  2  0  0  0  0  0  0
   25.8390  -27.3070  -17.3140 C   0  0  0  0  0  3  0  0  0  0  0  0
   27.1180  -27.0420  -16.4040 C   0  0  0  0  0  3  0  0  0  0  0  0
   24.7670  -28.3090  -16.7710 C   0  0  0  0  0  3  0  0  0  0  0  0
   23.4700  -28.4780  -17.6370 C   0  0  0  0  0  3  0  0  0  0  0  0
   22.2700  -29.2430  -16.9930 C   0  0  0  0  0  2  0  0  0  0  0  0
   20.9450  -31.3590  -17.1500 C   0  0  0  0  0  0  0  0  0  0  0  0
   20.1140  -30.9300  -16.3510 O   0  0  0  0  0  0  0  0  0  0  0  0
   21.9560  -30.5660  -17.5800 N   0  0  0  0  0  0  0  0  0  0  0  0
   22.6550  -30.9890  -18.1770 H   0  0  0  0  0  0  0  0  0  0  0  0
   20.9960  -32.8770  -17.4440 C   0  0  0  0  0  2  0  0  0  0  0  0
   21.4420  -33.6420  -16.1620 C   0  0  0  0  0  3  0  0  0  0  0  0
   22.7870  -33.1850  -15.8210 N   0  0  0  0  0  0  0  0  0  0  0  0
   21.4320  -35.1610  -16.2280 C   0  0  0  0  0  0  0  0  0  0  0  0
   21.2120  -35.9200  -17.3090 N   0  0  0  0  0  0  0  0  0  0  0  0
   21.4130  -37.2260  -16.8970 N   0  0  0  0  0  0  0  0  0  0  0  0
   21.7460  -37.1540  -15.6050 C   0  0  0  0  0  0  0  0  0  0  0  0
   22.1150  -38.3520  -14.7810 C   0  0  0  0  0  1  0  0  0  0  0  0
   21.7420  -35.8890  -15.1330 N   0  0  0  0  0  0  0  0  0  0  0  0
   21.9910  -35.3940  -13.8340 C   0  0  0  0  0  0  0  0  0  0  0  0
   21.4490  -36.1250  -12.3570 S   0  0  0  0  0  0  0  0  0  0  0  0
   22.0850  -34.8050  -11.4160 C   0  0  0  0  0  0  0  0  0  0  0  0
   21.9330  -34.8180   -9.9290 C   0  0  0  0  0  1  0  0  0  0  0  0
   22.6700  -33.8400  -12.2080 C   0  0  0  0  0  0  0  0  0  0  0  0
   23.2330  -32.5600  -11.6420 C   0  0  0  0  0  1  0  0  0  0  0  0
   22.6540  -34.2080  -13.6000 C   0  0  0  0  0  0  0  0  0  0  0  0
   23.3030  -33.3960  -14.6740 C   0  0  0  0  0  0  0  0  0  0  0  0
   24.6400  -32.8200  -14.4240 C   0  0  0  0  0  0  0  0  0  0  0  0
   25.6440  -33.6030  -13.8180 C   0  0  0  0  0  3  0  0  0  0  0  0
   26.9120  -33.0470  -13.5620 C   0  0  0  0  0  3  0  0  0  0  0  0
   27.1770  -31.7080  -13.9050 C   0  0  0  0  0  0  0  0  0  0  0  0
   28.7250  -31.0200  -13.5960 Cl  0  0  0  0  0  0  0  0  0  0  0  0
   26.1720  -30.9240  -14.4960 C   0  0  0  0  0  3  0  0  0  0  0  0
   24.9080  -31.4800  -14.7670 C   0  0  0  0  0  3  0  0  0  0  0  0
   24.9170  -23.5090  -15.2220 C   0  0  0  0  0  3  0  0  0  0  0  0
   21.8310  -23.9300  -12.8130 C   0  0  0  0  0  3  0  0  0  0  0  0
   21.3630  -22.7440  -11.9560 C   0  0  0  0  0  2  0  0  0  0  0  0
   22.6200  -21.9330  -11.7200 C   0  0  0  0  0  3  0  0  0  0  0  0
   23.4870  -22.1800  -12.9550 C   0  0  0  0  0  2  0  0  0  0  0  0
   23.0190  -23.4400  -13.5440 N   0  0  0  0  0  0  0  0  0  0  0  0
   23.6670  -24.1260  -14.5210 C   0  0  0  0  0  0  0  0  0  0  0  0
   23.3150  -25.2670  -14.8460 O   0  0  0  0  0  0  0  0  0  0  0  0
   19.8830  -25.3600  -13.1430 N   0  0  0  0  0  0  0  0  0  0  0  0
   20.6620  -24.4170  -13.6840 C   0  0  0  0  0  0  0  0  0  0  0  0
   20.4400  -23.9090  -14.7860 O   0  0  0  0  0  0  0  0  0  0  0  0
   20.1490  -25.7340  -12.2420 H   0  0  0  0  0  0  0  0  0  0  0  0
   18.6190  -25.8250  -13.6990 C   0  0  0  0  0  2  0  0  0  0  0  0
   15.2500  -23.2730  -12.6560 C   0  0  0  0  0  0  0  0  0  0  0  0
   16.2960  -23.4780  -11.7330 C   0  0  0  0  0  3  0  0  0  0  0  0
   17.3870  -24.2990  -12.0670 C   0  0  0  0  0  3  0  0  0  0  0  0
   15.3100  -23.8960  -13.9200 C   0  0  0  0  0  3  0  0  0  0  0  0
   16.4030  -24.7170  -14.2550 C   0  0  0  0  0  3  0  0  0  0  0  0
   17.4470  -24.9250  -13.3310 C   0  0  0  0  0  0  0  0  0  0  0  0
   12.1210  -23.7960  -13.2470 C   0  0  0  0  0  1  0  0  0  0  0  0
   12.7750  -22.6480  -12.5060 C   0  0  0  0  0  0  0  0  0  0  0  0
   11.9550  -21.6960  -11.9370 N   0  0  0  0  0  0  0  0  0  0  0  0
   12.5930  -20.7350  -11.0440 C   0  0  0  0  0  2  0  0  0  0  0  0
   14.3600  -20.9870  -11.3600 S   0  0  0  0  0  0  0  0  0  0  0  0
   14.0800  -22.4740  -12.2530 C   0  0  0  0  0  0  0  0  0  0  0  0
   10.9410  -21.7570  -11.9480 H   0  0  0  0  0  0  0  0  0  0  0  0
   23.3030  -22.4080  -10.5710 O   0  0  0  0  0  0  0  0  0  0  0  0
   23.5250  -23.3230  -10.7100 H   0  0  0  0  0  0  0  0  0  0  0  0
   24.5950  -22.8000  -16.5900 C   0  0  1  0  0  0  0  0  0  0  0  0
   25.8730  -22.0800  -17.0840 C   0  0  0  0  0  1  0  0  0  0  0  0
   24.1420  -23.7670  -17.7120 C   0  0  0  0  0  1  0  0  0  0  0  0
   23.5020  -21.7240  -16.4320 C   0  0  0  0  0  1  0  0  0  0  0  0
  1 44  1  0
  1  2  1  0
  2  3  2  0
  4  2  1  0
  4  6  1  0
  5  1  1  0
  7  9  1  0
  7  8  1  0
  8 10  1  0
  9 11  1  0
 10 12  1  0
 11 13  1  0
 11 12  1  0
 12  4  1  0
 14 15  1  0
 14 13  2  0
 16 17  2  0
 18 16  1  0
 18 15  1  0
 19 18  1  0
 20 16  1  0
 21 20  1  0
 21 22  1  0
 22 36  2  0
 23 21  1  0
 23 28  1  0
 24 25  1  0
 24 23  2  0
 25 26  2  0
 26 28  1  0
 26 27  1  0
 28 29  1  0
 29 35  2  0
 29 30  1  0
 30 31  1  0
 31 32  1  0
 33 34  1  0
 33 31  2  0
 35 33  1  0
 36 37  1  0
 36 35  1  0
 37 38  1  0
 38 39  2  0
 40 41  1  0
 40 39  1  0
 42 40  2  0
 43 42  1  0
 43 37  2  0
 44 50  1  0
 45 53  1  0
 45 46  1  0
 46 47  1  0
 47 70  1  0
 48 47  1  0
 49 48  1  0
 49 45  1  0
 50 49  1  0
 51 50  2  0
 52 55  1  0
 53 52  1  0
 54 53  2  0
 56 62  1  0
 56 52  1  0
 57 68  1  0
 57 58  1  0
 59 58  2  0
 60 57  2  0
 61 60  1  0
 61 62  2  0
 62 59  1  0
 63 64  1  0
 64 68  2  0
 64 65  1  0
 65 66  1  0
 67 66  1  0
 68 67  1  0
 69 65  1  0
 71 70  1  0
 72 75  1  1
 72 44  1  0
 73 72  1  0
 74 72  1  0
M  ISO  4   2 101   4 101  16 100  18 100
M  END
>  <TORSDO>  (193) 
F 16

>  <SCORE>  (193) 
-13.957

>  <name>  (193) 
192

>  <ligand_id>  (193) 
192

>  <original_smiles>  (193) 
[H]OC1([H])C([H])([H])N(C(=O)C([H])(N([H])C(=O)N([H])C2([H])C([H])([H])C([H])([H])C([H])([H])C([H])([H])C2([H])C([H])([H])C([H])([H])C([H])([H])N([H])C(=O)C([H])([H])C2([H])N=C(c3c([H])c([H])c(Cl)c([H])c3[H])c3c(sc(C([H])([H])[H])c3C([H])([H])[H])-n3c(C([H])([H])[H])nnc32)C(C([H])([H])[H])(C([H])([H])[H])C([H])([H])[H])C([H])(C(=O)N([H])C([H])([H])c2c([H])c([H])c(C3=C(C([H])([H])[H])N([H])C([H])([H])S3)c([H])c2[H])C1([H])[H]

>  <smiles>  (193) 
[H]OC1([H])C([H])([H])N(C(=O)C([H])(N([H])C(=O)N([H])C2([H])C([H])([H])C([H])([H])C([H])([H])C([H])([H])C2([H])C([H])([H])C([H])([H])C([H])([H])N([H])C(=O)C([H])([H])C2([H])N=C(c3c([H])c([H])c(Cl)c([H])c3[H])c3c(sc(C([H])([H])[H])c3C([H])([H])[H])-n3c(C([H])([H])[H])nnc32)C(C([H])([H])[H])(C([H])([H])[H])C([H])([H])[H])C([H])(C(=O)N([H])C([H])([H])c2c([H])c([H])c(C3=C(C([H])([H])[H])N([H])C([H])([H])S3)c([H])c2[H])C1([H])[H]

$$$$
193:0:0
     RDKit          3D

 77 83  0  0  1  0  0  0  0  0999 V2000
   25.7740  -27.8940  -16.8690 C   0  0  0  0  0  3  0  0  0  0  0  0
   23.5590  -28.8630  -17.3730 C   0  0  0  0  0  0  0  0  0  0  0  0
   26.3730  -28.2620  -18.2040 C   0  0  0  0  0  1  0  0  0  0  0  0
   23.6010  -28.6890  -18.7070 N   0  0  0  0  0  4  0  0  0  0  0  0
   24.4870  -28.2690  -16.5320 N   0  0  0  0  0  0  0  0  0  0  0  0
   26.6940  -27.2410  -16.0800 N   0  0  0  0  0  0  0  0  0  0  0  0
   22.5310  -29.6610  -16.9270 N   0  0  0  0  0  0  0  0  0  0  0  0
   24.0400  -27.8910  -19.1420 H   0  0  0  0  0  0  0  0  0  0  0  0
   22.9090  -29.1700  -19.2630 H   0  0  0  0  0  0  0  0  0  0  0  0
   24.2200  -28.1460  -15.5650 H   0  0  0  0  0  0  0  0  0  0  0  0
   27.6160  -27.1010  -16.4790 H   0  0  0  0  0  0  0  0  0  0  0  0
   22.1880  -29.7170  -15.9750 H   0  0  0  0  0  0  0  0  0  0  0  0
   25.9070  -24.7840  -15.4610 N   0  0  0  0  0  0  0  0  0  0  0  0
   26.6650  -25.4120  -14.5680 C   0  0  0  0  0  0  0  0  0  0  0  0
   27.2020  -24.8410  -13.6090 O   0  0  0  0  0  0  0  0  0  0  0  0
   26.5620  -26.7560  -14.7470 N   0  0  0  0  0  0  0  0  0  0  0  0
   25.5670  -25.3470  -16.2200 H   0  0  0  0  0  0  0  0  0  0  0  0
   27.0690  -27.3850  -14.1400 H   0  0  0  0  0  0  0  0  0  0  0  0
   25.0090  -23.6670  -15.2000 C   0  0  0  0  0  3  0  0  0  0  0  0
   21.9150  -23.9870  -12.7780 C   0  0  0  0  0  3  0  0  0  0  0  0
   21.4710  -22.7720  -11.9470 C   0  0  0  0  0  2  0  0  0  0  0  0
   22.7410  -21.9810  -11.7250 C   0  0  0  0  0  3  0  0  0  0  0  0
   23.6020  -22.2730  -12.9590 C   0  0  0  0  0  2  0  0  0  0  0  0
   23.1110  -23.5360  -13.5210 N   0  0  0  0  0  0  0  0  0  0  0  0
   23.7470  -24.2540  -14.4870 C   0  0  0  0  0  0  0  0  0  0  0  0
   23.3810  -25.3990  -14.7920 O   0  0  0  0  0  0  0  0  0  0  0  0
   19.9470  -25.3970  -13.0900 N   0  0  0  0  0  0  0  0  0  0  0  0
   20.7390  -24.4710  -13.6430 C   0  0  0  0  0  0  0  0  0  0  0  0
   20.5260  -23.9830  -14.7530 O   0  0  0  0  0  0  0  0  0  0  0  0
   20.2000  -25.7520  -12.1770 H   0  0  0  0  0  0  0  0  0  0  0  0
   18.6740  -25.8480  -13.6360 C   0  0  0  0  0  2  0  0  0  0  0  0
   15.3460  -23.2300  -12.6240 C   0  0  0  0  0  0  0  0  0  0  0  0
   16.3840  -23.4490  -11.6960 C   0  0  0  0  0  3  0  0  0  0  0  0
   17.4610  -24.2890  -12.0210 C   0  0  0  0  0  3  0  0  0  0  0  0
   15.3990  -23.8640  -13.8850 C   0  0  0  0  0  3  0  0  0  0  0  0
   16.4800  -24.7080  -14.2080 C   0  0  0  0  0  3  0  0  0  0  0  0
   17.5170  -24.9250  -13.2790 C   0  0  0  0  0  0  0  0  0  0  0  0
   12.2160  -23.7100  -13.2240 C   0  0  0  0  0  1  0  0  0  0  0  0
   12.8830  -22.5670  -12.4880 C   0  0  0  0  0  0  0  0  0  0  0  0
   12.0770  -21.5960  -11.9330 N   0  0  0  0  0  0  0  0  0  0  0  0
   12.7240  -20.6390  -11.0440 C   0  0  0  0  0  2  0  0  0  0  0  0
   14.4920  -20.9260  -11.3430 S   0  0  0  0  0  0  0  0  0  0  0  0
   14.1890  -22.4100  -12.2310 C   0  0  0  0  0  0  0  0  0  0  0  0
   11.0650  -21.6390  -11.9550 H   0  0  0  0  0  0  0  0  0  0  0  0
   23.4140  -22.4450  -10.5660 O   0  0  0  0  0  0  0  0  0  0  0  0
   23.6280  -23.3630  -10.6900 H   0  0  0  0  0  0  0  0  0  0  0  0
   24.7010  -23.0330  -16.6050 C   0  0  1  0  0  0  0  0  0  0  0  0
   26.0060  -22.3880  -17.1350 C   0  0  0  0  0  1  0  0  0  0  0  0
   24.2060  -24.0710  -17.6460 C   0  0  0  0  0  1  0  0  0  0  0  0
   23.6400  -21.9170  -16.5010 C   0  0  0  0  0  1  0  0  0  0  0  0
   21.9320  -30.5940  -17.8020 O   0  0  0  0  0  0  0  0  0  0  0  0
   20.9430  -31.3360  -17.1820 C   0  0  0  0  0  0  0  0  0  0  0  0
   20.2010  -30.8830  -16.3090 O   0  0  0  0  0  0  0  0  0  0  0  0
   21.0090  -32.8610  -17.4450 C   0  0  0  0  0  2  0  0  0  0  0  0
   21.4290  -33.6250  -16.1560 C   0  0  0  0  0  3  0  0  0  0  0  0
   22.7590  -33.1380  -15.7990 N   0  0  0  0  0  0  0  0  0  0  0  0
   21.4490  -35.1510  -16.2260 C   0  0  0  0  0  0  0  0  0  0  0  0
   21.2380  -35.9130  -17.3060 N   0  0  0  0  0  0  0  0  0  0  0  0
   21.4510  -37.2170  -16.8970 N   0  0  0  0  0  0  0  0  0  0  0  0
   21.7860  -37.1430  -15.6040 C   0  0  0  0  0  0  0  0  0  0  0  0
   22.1600  -38.3400  -14.7780 C   0  0  0  0  0  1  0  0  0  0  0  0
   21.7640  -35.8800  -15.1320 N   0  0  0  0  0  0  0  0  0  0  0  0
   22.0000  -35.3880  -13.8330 C   0  0  0  0  0  0  0  0  0  0  0  0
   21.4690  -36.1330  -12.3590 S   0  0  0  0  0  0  0  0  0  0  0  0
   22.0820  -34.8030  -11.4160 C   0  0  0  0  0  0  0  0  0  0  0  0
   21.9250  -34.8220   -9.9290 C   0  0  0  0  0  1  0  0  0  0  0  0
   22.6580  -33.8310  -12.2030 C   0  0  0  0  0  0  0  0  0  0  0  0
   23.2060  -32.5460  -11.6350 C   0  0  0  0  0  1  0  0  0  0  0  0
   22.6500  -34.1960  -13.5930 C   0  0  0  0  0  0  0  0  0  0  0  0
   23.2900  -33.3720  -14.6640 C   0  0  0  0  0  0  0  0  0  0  0  0
   24.6220  -32.7850  -14.4190 C   0  0  0  0  0  0  0  0  0  0  0  0
   25.6430  -33.5680  -13.8450 C   0  0  0  0  0  3  0  0  0  0  0  0
   26.9020  -32.9960  -13.5830 C   0  0  0  0  0  3  0  0  0  0  0  0
   27.1390  -31.6440  -13.8930 C   0  0  0  0  0  0  0  0  0  0  0  0
   28.6770  -30.9400  -13.5680 Cl  0  0  0  0  0  0  0  0  0  0  0  0
   26.1240  -30.8630  -14.4710 C   0  0  0  0  0  3  0  0  0  0  0  0
   24.8690  -31.4350  -14.7390 C   0  0  0  0  0  3  0  0  0  0  0  0
  1  3  1  0
  1  5  1  0
  1  6  1  0
  2  7  1  0
  2  5  1  0
  4  2  2  0
  5 10  1  0
  6 16  1  0
  7 12  1  0
  8  4  1  0
  9  4  1  0
 11  6  1  0
 13 19  1  0
 13 14  1  0
 14 15  2  0
 16 14  1  0
 16 18  1  0
 17 13  1  0
 19 25  1  0
 20 28  1  0
 20 21  1  0
 21 22  1  0
 22 45  1  0
 23 22  1  0
 24 23  1  0
 24 20  1  0
 25 24  1  0
 26 25  2  0
 27 30  1  0
 28 27  1  0
 29 28  2  0
 31 37  1  0
 31 27  1  0
 32 43  1  0
 32 33  1  0
 34 33  2  0
 35 32  2  0
 36 35  1  0
 36 37  2  0
 37 34  1  0
 38 39  1  0
 39 43  2  0
 39 40  1  0
 40 41  1  0
 42 41  1  0
 43 42  1  0
 44 40  1  0
 46 45  1  0
 47 50  1  1
 47 19  1  0
 48 47  1  0
 49 47  1  0
 51 52  1  0
 51  7  1  0
 52 53  2  0
 54 52  1  0
 55 54  1  0
 55 56  1  0
 56 70  2  0
 57 55  1  0
 57 62  1  0
 58 59  1  0
 58 57  2  0
 59 60  2  0
 60 62  1  0
 60 61  1  0
 62 63  1  0
 63 69  2  0
 63 64  1  0
 64 65  1  0
 65 66  1  0
 67 68  1  0
 67 65  2  0
 69 67  1  0
 70 71  1  0
 70 69  1  0
 71 72  1  0
 72 73  2  0
 74 73  1  0
 74 75  1  0
 76 74  2  0
 77 76  1  0
 77 71  2  0
M  ISO  4  14 101  16 101  51 100  52 100
M  END
>  <TORSDO>  (194) 
F 14

>  <SCORE>  (194) 
-14.847

>  <name>  (194) 
193

>  <ligand_id>  (194) 
193

>  <original_smiles>  (194) 
[H]OC1([H])C([H])([H])N(C(=O)C([H])(N([H])C(=O)N([H])[N+]([H])=C(N([H])C(N([H])[H])=[N+]([H])OC(=O)C([H])([H])C2([H])N=C(c3c([H])c([H])c(Cl)c([H])c3[H])c3c(sc(C([H])([H])[H])c3C([H])([H])[H])-n3c(C([H])([H])[H])nnc32)C([H])([H])[H])C(C([H])([H])[H])(C([H])([H])[H])C([H])([H])[H])C([H])(C(=O)N([H])C([H])([H])c2c([H])c([H])c(C3=C(C([H])([H])[H])N([H])C([H])([H])S3)c([H])c2[H])C1([H])[H]

>  <smiles>  (194) 
[H]OC1([H])C([H])([H])N(C(=O)C([H])(N([H])C(=O)N([H])[N+]([H])=C(N([H])C(N([H])[H])=[N+]([H])OC(=O)C([H])([H])C2([H])N=C(c3c([H])c([H])c(Cl)c([H])c3[H])c3c(sc(C([H])([H])[H])c3C([H])([H])[H])-n3c(C([H])([H])[H])nnc32)C([H])([H])[H])C(C([H])([H])[H])(C([H])([H])[H])C([H])([H])[H])C([H])(C(=O)N([H])C([H])([H])c2c([H])c([H])c(C3=C(C([H])([H])[H])N([H])C([H])([H])S3)c([H])c2[H])C1([H])[H]

$$$$
194:0:0
     RDKit          3D

 76 83  0  0  1  0  0  0  0  0999 V2000
   25.2560  -27.7900  -16.2320 C   0  0  0  0  0  0  0  0  0  0  0  0
   26.2290  -28.0090  -17.1280 N   0  0  0  0  0  4  0  0  0  0  0  0
   25.5560  -27.1950  -15.0510 N   0  0  0  0  0  0  0  0  0  0  0  0
   25.9950  -28.4190  -18.0190 H   0  0  0  0  0  0  0  0  0  0  0  0
   27.2020  -27.8310  -16.9300 H   0  0  0  0  0  0  0  0  0  0  0  0
   24.8210  -26.7900  -14.4780 H   0  0  0  0  0  0  0  0  0  0  0  0
   20.9360  -31.5290  -17.2970 C   0  0  0  0  0  0  0  0  0  0  0  0
   20.1260  -31.0490  -16.4990 O   0  0  0  0  0  0  0  0  0  0  0  0
   22.6340  -27.7250  -16.3880 C   0  0  0  0  0  3  0  0  0  0  0  0
   23.9050  -28.2270  -16.5720 C   0  0  0  0  0  0  0  0  0  0  0  0
   22.4500  -29.6170  -17.3760 C   0  0  0  0  0  0  0  0  0  0  0  0
   21.7130  -28.6210  -16.9000 N   0  0  0  0  0  0  0  0  0  0  0  0
   21.9360  -30.8330  -17.8660 N   0  0  0  0  0  0  0  0  0  0  0  0
   23.7940  -29.4140  -17.2640 O   0  0  0  0  0  0  0  0  0  0  0  0
   22.5790  -31.3740  -18.4200 H   0  0  0  0  0  0  0  0  0  0  0  0
   20.9840  -33.0450  -17.5120 C   0  0  0  0  0  2  0  0  0  0  0  0
   21.4660  -33.7260  -16.2030 C   0  0  0  0  0  3  0  0  0  0  0  0
   22.8010  -33.2210  -15.8650 N   0  0  0  0  0  0  0  0  0  0  0  0
   21.4970  -35.2380  -16.2570 C   0  0  0  0  0  0  0  0  0  0  0  0
   21.3040  -36.0030  -17.3370 N   0  0  0  0  0  0  0  0  0  0  0  0
   21.5170  -37.3000  -16.9170 N   0  0  0  0  0  0  0  0  0  0  0  0
   21.8330  -37.2160  -15.6210 C   0  0  0  0  0  0  0  0  0  0  0  0
   22.2050  -38.4050  -14.7870 C   0  0  0  0  0  1  0  0  0  0  0  0
   21.8090  -35.9490  -15.1550 N   0  0  0  0  0  0  0  0  0  0  0  0
   22.0360  -35.4340  -13.8630 C   0  0  0  0  0  0  0  0  0  0  0  0
   21.4810  -36.1540  -12.3850 S   0  0  0  0  0  0  0  0  0  0  0  0
   22.0880  -34.8150  -11.4500 C   0  0  0  0  0  0  0  0  0  0  0  0
   21.9200  -34.8160   -9.9660 C   0  0  0  0  0  1  0  0  0  0  0  0
   22.6680  -33.8490  -12.2460 C   0  0  0  0  0  0  0  0  0  0  0  0
   23.2000  -32.5540  -11.6860 C   0  0  0  0  0  1  0  0  0  0  0  0
   22.6740  -34.2330  -13.6340 C   0  0  0  0  0  0  0  0  0  0  0  0
   23.3180  -33.4160  -14.7120 C   0  0  0  0  0  0  0  0  0  0  0  0
   24.6480  -32.8190  -14.4570 C   0  0  0  0  0  0  0  0  0  0  0  0
   25.6570  -33.5880  -13.8410 C   0  0  0  0  0  3  0  0  0  0  0  0
   26.9160  -33.0160  -13.5730 C   0  0  0  0  0  3  0  0  0  0  0  0
   27.1710  -31.6790  -13.9270 C   0  0  0  0  0  0  0  0  0  0  0  0
   28.7070  -30.9740  -13.5940 Cl  0  0  0  0  0  0  0  0  0  0  0  0
   26.1700  -30.9140  -14.5510 C   0  0  0  0  0  3  0  0  0  0  0  0
   24.9070  -31.4800  -14.8130 C   0  0  0  0  0  3  0  0  0  0  0  0
   26.8270  -26.6450  -14.8000 O   0  0  0  0  0  0  0  0  0  0  0  0
   25.9300  -24.7060  -15.5000 N   0  0  0  0  0  0  0  0  0  0  0  0
   26.7390  -25.2930  -14.5570 C   0  0  0  0  0  0  0  0  0  0  0  0
   27.2510  -24.7010  -13.6010 O   0  0  0  0  0  0  0  0  0  0  0  0
   25.7710  -25.2490  -16.3320 H   0  0  0  0  0  0  0  0  0  0  0  0
   24.9920  -23.6150  -15.2810 C   0  0  0  0  0  3  0  0  0  0  0  0
   21.9220  -23.9590  -12.8280 C   0  0  0  0  0  3  0  0  0  0  0  0
   21.4800  -22.7530  -11.9860 C   0  0  0  0  0  2  0  0  0  0  0  0
   22.7520  -21.9560  -11.7790 C   0  0  0  0  0  3  0  0  0  0  0  0
   23.5950  -22.2260  -13.0250 C   0  0  0  0  0  2  0  0  0  0  0  0
   23.1040  -23.4880  -13.5800 N   0  0  0  0  0  0  0  0  0  0  0  0
   23.7480  -24.1950  -14.5340 C   0  0  0  0  0  0  0  0  0  0  0  0
   23.4300  -25.3600  -14.7810 O   0  0  0  0  0  0  0  0  0  0  0  0
   19.9400  -25.3590  -13.1140 N   0  0  0  0  0  0  0  0  0  0  0  0
   20.7340  -24.4430  -13.6800 C   0  0  0  0  0  0  0  0  0  0  0  0
   20.5170  -23.9580  -14.7920 O   0  0  0  0  0  0  0  0  0  0  0  0
   20.1960  -25.7120  -12.2030 H   0  0  0  0  0  0  0  0  0  0  0  0
   18.6590  -25.8060  -13.6510 C   0  0  0  0  0  2  0  0  0  0  0  0
   15.3520  -23.1730  -12.6100 C   0  0  0  0  0  0  0  0  0  0  0  0
   16.3930  -23.4020  -11.6870 C   0  0  0  0  0  3  0  0  0  0  0  0
   17.4630  -24.2500  -12.0210 C   0  0  0  0  0  3  0  0  0  0  0  0
   15.3980  -23.7960  -13.8750 C   0  0  0  0  0  3  0  0  0  0  0  0
   16.4700  -24.6460  -14.2100 C   0  0  0  0  0  3  0  0  0  0  0  0
   17.5090  -24.8780  -13.2860 C   0  0  0  0  0  0  0  0  0  0  0  0
   12.2110  -23.6020  -13.2180 C   0  0  0  0  0  1  0  0  0  0  0  0
   12.8960  -22.4770  -12.4680 C   0  0  0  0  0  0  0  0  0  0  0  0
   12.1010  -21.5030  -11.8980 N   0  0  0  0  0  0  0  0  0  0  0  0
   12.7620  -20.5690  -10.9950 C   0  0  0  0  0  2  0  0  0  0  0  0
   14.5220  -20.8680  -11.3060 S   0  0  0  0  0  0  0  0  0  0  0  0
   14.2040  -22.3410  -12.2090 C   0  0  0  0  0  0  0  0  0  0  0  0
   11.0860  -21.5350  -11.9130 H   0  0  0  0  0  0  0  0  0  0  0  0
   23.4470  -22.4340  -10.6370 O   0  0  0  0  0  0  0  0  0  0  0  0
   23.6340  -23.3590  -10.7600 H   0  0  0  0  0  0  0  0  0  0  0  0
   24.6780  -23.0380  -16.7030 C   0  0  1  0  0  0  0  0  0  0  0  0
   25.9760  -22.4200  -17.2760 C   0  0  0  0  0  1  0  0  0  0  0  0
   24.1730  -24.1100  -17.7070 C   0  0  0  0  0  1  0  0  0  0  0  0
   23.6250  -21.9160  -16.6280 C   0  0  0  0  0  1  0  0  0  0  0  0
  1  3  1  0
  2  5  1  0
  2  1  2  0
  3 40  1  0
  3  6  1  0
  4  2  1  0
  7  8  2  0
 10  9  2  0
 10  1  1  0
 11 14  1  0
 11 12  2  0
 12  9  1  0
 13 11  1  0
 13  7  1  0
 14 10  1  0
 15 13  1  0
 16  7  1  0
 17 16  1  0
 17 18  1  0
 18 32  2  0
 19 17  1  0
 19 24  1  0
 20 21  1  0
 20 19  2  0
 21 22  2  0
 22 24  1  0
 22 23  1  0
 24 25  1  0
 25 31  2  0
 25 26  1  0
 26 27  1  0
 27 28  1  0
 29 30  1  0
 29 27  2  0
 31 29  1  0
 32 33  1  0
 32 31  1  0
 33 34  1  0
 34 35  2  0
 36 37  1  0
 36 35  1  0
 38 36  2  0
 39 38  1  0
 39 33  2  0
 40 42  1  0
 41 45  1  0
 41 42  1  0
 42 43  2  0
 44 41  1  0
 45 51  1  0
 46 54  1  0
 46 47  1  0
 47 48  1  0
 48 71  1  0
 49 48  1  0
 50 49  1  0
 50 46  1  0
 51 50  1  0
 52 51  2  0
 53 56  1  0
 54 53  1  0
 55 54  2  0
 57 63  1  0
 57 53  1  0
 58 69  1  0
 58 59  1  0
 60 59  2  0
 61 58  2  0
 62 61  1  0
 62 63  2  0
 63 60  1  0
 64 65  1  0
 65 69  2  0
 65 66  1  0
 66 67  1  0
 68 67  1  0
 69 68  1  0
 70 66  1  0
 72 71  1  0
 73 76  1  1
 73 45  1  0
 74 73  1  0
 75 73  1  0
M  ISO  4   7 100  13 100  40 101  42 101
M  END
>  <TORSDO>  (195) 
F 14

>  <SCORE>  (195) 
-15.220

>  <name>  (195) 
194

>  <ligand_id>  (195) 
194

>  <original_smiles>  (195) 
[H]OC1([H])C([H])([H])N(C(=O)C([H])(N([H])C(=O)O[N+]([H])=C(c2oc(N([H])C(=O)C([H])([H])C3([H])N=C(c4c([H])c([H])c(Cl)c([H])c4[H])c4c(sc(C([H])([H])[H])c4C([H])([H])[H])-n4c(C([H])([H])[H])nnc43)nc2[H])N([H])[H])C(C([H])([H])[H])(C([H])([H])[H])C([H])([H])[H])C([H])(C(=O)N([H])C([H])([H])c2c([H])c([H])c(C3=C(C([H])([H])[H])N([H])C([H])([H])S3)c([H])c2[H])C1([H])[H]

>  <smiles>  (195) 
[H]OC1([H])C([H])([H])N(C(=O)C([H])(N([H])C(=O)O[N+]([H])=C(c2oc(N([H])C(=O)C([H])([H])C3([H])N=C(c4c([H])c([H])c(Cl)c([H])c4[H])c4c(sc(C([H])([H])[H])c4C([H])([H])[H])-n4c(C([H])([H])[H])nnc43)nc2[H])N([H])[H])C(C([H])([H])[H])(C([H])([H])[H])C([H])([H])[H])C([H])(C(=O)N([H])C([H])([H])c2c([H])c([H])c(C3=C(C([H])([H])[H])N([H])C([H])([H])S3)c([H])c2[H])C1([H])[H]

$$$$
195:0:0
     RDKit          3D

 76 82  0  0  1  0  0  0  0  0999 V2000
   25.7550  -24.7400  -15.4800 N   0  0  0  0  0  0  0  0  0  0  0  0
   26.5930  -25.4350  -14.7200 C   0  0  0  0  0  0  0  0  0  0  0  0
   27.2720  -24.9170  -13.8230 O   0  0  0  0  0  0  0  0  0  0  0  0
   26.5140  -26.7610  -14.9940 N   0  0  0  0  0  0  0  0  0  0  0  0
   25.3900  -25.2310  -16.2800 H   0  0  0  0  0  0  0  0  0  0  0  0
   26.9790  -27.4480  -14.4180 H   0  0  0  0  0  0  0  0  0  0  0  0
   25.0570  -28.1320  -16.4790 C   0  0  0  0  0  3  0  0  0  0  0  0
   26.2240  -28.4660  -17.3770 C   0  0  0  0  0  1  0  0  0  0  0  0
   23.8280  -28.6820  -16.7530 N   0  0  0  0  0  0  0  0  0  0  0  0
   25.2370  -27.3020  -15.4020 N   0  0  0  0  0  0  0  0  0  0  0  0
   23.0460  -28.4640  -16.1520 H   0  0  0  0  0  0  0  0  0  0  0  0
   24.4410  -26.9870  -14.8450 H   0  0  0  0  0  0  0  0  0  0  0  0
   23.5450  -29.7360  -17.7820 C   0  0  0  0  0  2  0  0  0  0  0  0
   21.6430  -28.5970  -18.9810 C   0  0  0  0  0  1  0  0  0  0  0  0
   22.0630  -31.0060  -19.3800 C   0  0  0  0  0  1  0  0  0  0  0  0
   22.0680  -29.9090  -18.2970 C   0  0  1  0  0  0  0  0  0  0  0  0
   20.3130  -31.1700  -16.7280 C   0  0  0  0  0  0  0  0  0  0  0  0
   19.6160  -30.8760  -15.7610 O   0  0  0  0  0  0  0  0  0  0  0  0
   21.0730  -30.1560  -17.2220 N   0  0  0  0  0  0  0  0  0  0  0  0
   20.8370  -29.3010  -16.7400 H   0  0  0  0  0  0  0  0  0  0  0  0
   20.3710  -32.6690  -17.1320 C   0  0  0  0  0  2  0  0  0  0  0  0
   20.9210  -33.5230  -15.9530 C   0  0  0  0  0  3  0  0  0  0  0  0
   22.2500  -33.0090  -15.6300 N   0  0  0  0  0  0  0  0  0  0  0  0
   21.0000  -35.0280  -16.1720 C   0  0  0  0  0  0  0  0  0  0  0  0
   20.7500  -35.6910  -17.3080 N   0  0  0  0  0  0  0  0  0  0  0  0
   21.0500  -37.0150  -17.0460 N   0  0  0  0  0  0  0  0  0  0  0  0
   21.4610  -37.0520  -15.7740 C   0  0  0  0  0  0  0  0  0  0  0  0
   21.9500  -38.3000  -15.1020 C   0  0  0  0  0  1  0  0  0  0  0  0
   21.4140  -35.8420  -15.1760 N   0  0  0  0  0  0  0  0  0  0  0  0
   21.7120  -35.4650  -13.8480 C   0  0  0  0  0  0  0  0  0  0  0  0
   21.3050  -36.3750  -12.4260 S   0  0  0  0  0  0  0  0  0  0  0  0
   21.9180  -35.1180  -11.3900 C   0  0  0  0  0  0  0  0  0  0  0  0
   21.8600  -35.2930   -9.9060 C   0  0  0  0  0  1  0  0  0  0  0  0
   22.3920  -34.0400  -12.1070 C   0  0  0  0  0  0  0  0  0  0  0  0
   22.9110  -32.7890  -11.4440 C   0  0  0  0  0  1  0  0  0  0  0  0
   22.3130  -34.2680  -13.5280 C   0  0  0  0  0  0  0  0  0  0  0  0
   22.8460  -33.3100  -14.5430 C   0  0  0  0  0  0  0  0  0  0  0  0
   24.1580  -32.6800  -14.3050 C   0  0  0  0  0  0  0  0  0  0  0  0
   25.2580  -33.4600  -13.8890 C   0  0  0  0  0  3  0  0  0  0  0  0
   26.5020  -32.8480  -13.6490 C   0  0  0  0  0  3  0  0  0  0  0  0
   26.6490  -31.4610  -13.8290 C   0  0  0  0  0  0  0  0  0  0  0  0
   28.1700  -30.7030  -13.5390 Cl  0  0  0  0  0  0  0  0  0  0  0  0
   25.5510  -30.6830  -14.2270 C   0  0  0  0  0  3  0  0  0  0  0  0
   24.3040  -31.2890  -14.4590 C   0  0  0  0  0  3  0  0  0  0  0  0
   24.9350  -23.6070  -15.0800 C   0  0  0  0  0  3  0  0  0  0  0  0
   21.7590  -23.8370  -12.7590 C   0  0  0  0  0  3  0  0  0  0  0  0
   21.2810  -22.5870  -12.0010 C   0  0  0  0  0  2  0  0  0  0  0  0
   22.5420  -21.7820  -11.7730 C   0  0  0  0  0  3  0  0  0  0  0  0
   23.4460  -22.1240  -12.9570 C   0  0  0  0  0  2  0  0  0  0  0  0
   22.9800  -23.4140  -13.4770 N   0  0  0  0  0  0  0  0  0  0  0  0
   23.6550  -24.1690  -14.3790 C   0  0  0  0  0  0  0  0  0  0  0  0
   23.3190  -25.3360  -14.6330 O   0  0  0  0  0  0  0  0  0  0  0  0
   19.8280  -25.2880  -13.0840 N   0  0  0  0  0  0  0  0  0  0  0  0
   20.6130  -24.3590  -13.6400 C   0  0  0  0  0  0  0  0  0  0  0  0
   20.4140  -23.8910  -14.7630 O   0  0  0  0  0  0  0  0  0  0  0  0
   20.0760  -25.6320  -12.1660 H   0  0  0  0  0  0  0  0  0  0  0  0
   18.5790  -25.7800  -13.6520 C   0  0  0  0  0  2  0  0  0  0  0  0
   15.1540  -23.2740  -12.6840 C   0  0  0  0  0  0  0  0  0  0  0  0
   16.1750  -23.4730  -11.7340 C   0  0  0  0  0  3  0  0  0  0  0  0
   17.2850  -24.2800  -12.0430 C   0  0  0  0  0  3  0  0  0  0  0  0
   15.2550  -23.8860  -13.9500 C   0  0  0  0  0  3  0  0  0  0  0  0
   16.3660  -24.6920  -14.2600 C   0  0  0  0  0  3  0  0  0  0  0  0
   17.3870  -24.8950  -13.3090 C   0  0  0  0  0  0  0  0  0  0  0  0
   12.0520  -23.7980  -13.4060 C   0  0  0  0  0  1  0  0  0  0  0  0
   12.6710  -22.6630  -12.6140 C   0  0  0  0  0  0  0  0  0  0  0  0
   11.8240  -21.7280  -12.0570 N   0  0  0  0  0  0  0  0  0  0  0  0
   12.4210  -20.7840  -11.1190 C   0  0  0  0  0  2  0  0  0  0  0  0
   14.2010  -21.0200  -11.3720 S   0  0  0  0  0  0  0  0  0  0  0  0
   13.9640  -22.4900  -12.3070 C   0  0  0  0  0  0  0  0  0  0  0  0
   10.8120  -21.7930  -12.1090 H   0  0  0  0  0  0  0  0  0  0  0  0
   23.1770  -22.1910  -10.5710 O   0  0  0  0  0  0  0  0  0  0  0  0
   23.3810  -23.1190  -10.6360 H   0  0  0  0  0  0  0  0  0  0  0  0
   24.6440  -22.8060  -16.3980 C   0  0  1  0  0  0  0  0  0  0  0  0
   25.9730  -22.2070  -16.9210 C   0  0  0  0  0  1  0  0  0  0  0  0
   24.0350  -23.6810  -17.5270 C   0  0  0  0  0  1  0  0  0  0  0  0
   23.6880  -21.6240  -16.1460 C   0  0  0  0  0  1  0  0  0  0  0  0
  1 45  1  0
  1  2  1  0
  2  3  2  0
  4  2  1  0
  4  6  1  0
  5  1  1  0
  7  8  1  0
  7 10  1  0
  9  7  1  0
  9 11  1  0
 10  4  1  0
 10 12  1  0
 13  9  1  0
 16 14  1  6
 15 16  1  0
 16 13  1  0
 16 19  1  0
 17 18  2  0
 19 20  1  0
 19 17  1  0
 21 17  1  0
 22 21  1  0
 22 23  1  0
 23 37  2  0
 24 22  1  0
 24 29  1  0
 25 26  1  0
 25 24  2  0
 26 27  2  0
 27 29  1  0
 27 28  1  0
 29 30  1  0
 30 36  2  0
 30 31  1  0
 31 32  1  0
 32 33  1  0
 34 35  1  0
 34 32  2  0
 36 34  1  0
 37 38  1  0
 37 36  1  0
 38 39  1  0
 39 40  2  0
 41 40  1  0
 41 42  1  0
 43 41  2  0
 44 38  2  0
 44 43  1  0
 45 51  1  0
 46 54  1  0
 46 47  1  0
 47 48  1  0
 48 71  1  0
 49 48  1  0
 50 49  1  0
 50 46  1  0
 51 50  1  0
 52 51  2  0
 53 56  1  0
 54 53  1  0
 55 54  2  0
 57 63  1  0
 57 53  1  0
 58 69  1  0
 58 59  1  0
 60 59  2  0
 61 58  2  0
 62 61  1  0
 62 63  2  0
 63 60  1  0
 64 65  1  0
 65 69  2  0
 65 66  1  0
 66 67  1  0
 68 67  1  0
 69 68  1  0
 70 66  1  0
 72 71  1  0
 73 76  1  1
 73 45  1  0
 74 73  1  0
 75 73  1  0
M  ISO  4   2 101   4 101  17 100  19 100
M  END
>  <TORSDO>  (196) 
F 15

>  <SCORE>  (196) 
-12.203

>  <name>  (196) 
195

>  <ligand_id>  (196) 
195

>  <original_smiles>  (196) 
[H]OC1([H])C([H])([H])N(C(=O)C([H])(N([H])C(=O)N([H])[N+]([H])=C(N([H])C([H])([H])C(N([H])C(=O)C([H])([H])C2([H])N=C(c3c([H])c([H])c(Cl)c([H])c3[H])c3c(sc(C([H])([H])[H])c3C([H])([H])[H])-n3c(C([H])([H])[H])nnc32)(C([H])([H])[H])C([H])([H])[H])C([H])([H])[H])C(C([H])([H])[H])(C([H])([H])[H])C([H])([H])[H])C([H])(C(=O)N([H])C([H])([H])c2c([H])c([H])c(C3=C(C([H])([H])[H])N([H])C([H])([H])S3)c([H])c2[H])C1([H])[H]

>  <smiles>  (196) 
[H]OC1([H])C([H])([H])N(C(=O)C([H])(N([H])C(=O)N([H])[N+]([H])=C(N([H])C([H])([H])C(N([H])C(=O)C([H])([H])C2([H])N=C(c3c([H])c([H])c(Cl)c([H])c3[H])c3c(sc(C([H])([H])[H])c3C([H])([H])[H])-n3c(C([H])([H])[H])nnc32)(C([H])([H])[H])C([H])([H])[H])C([H])([H])[H])C(C([H])([H])[H])(C([H])([H])[H])C([H])([H])[H])C([H])(C(=O)N([H])C([H])([H])c2c([H])c([H])c(C3=C(C([H])([H])[H])N([H])C([H])([H])S3)c([H])c2[H])C1([H])[H]

$$$$
196:0:0
     RDKit          3D

 74 81  0  0  1  0  0  0  0  0999 V2000
   26.5480  -27.1290  -15.5920 C   0  0  0  0  0  2  0  0  0  0  0  0
   27.4070  -26.2350  -15.2330 N   0  0  0  0  0  2  0  0  0  0  0  0
   25.8540  -24.5820  -15.3150 N   0  0  0  0  0  0  0  0  0  0  0  0
   26.9000  -25.0780  -14.6340 C   0  0  0  0  0  0  0  0  0  0  0  0
   27.3820  -24.4850  -13.6640 O   0  0  0  0  0  0  0  0  0  0  0  0
   25.5740  -25.0910  -16.1370 H   0  0  0  0  0  0  0  0  0  0  0  0
   24.9600  -23.4780  -15.0280 C   0  0  0  0  0  3  0  0  0  0  0  0
   21.8020  -23.7400  -12.7070 C   0  0  0  0  0  3  0  0  0  0  0  0
   21.2870  -22.4820  -11.9890 C   0  0  0  0  0  2  0  0  0  0  0  0
   22.5210  -21.6280  -11.7950 C   0  0  0  0  0  3  0  0  0  0  0  0
   23.4320  -21.9790  -12.9710 C   0  0  0  0  0  2  0  0  0  0  0  0
   23.0040  -23.3020  -13.4430 N   0  0  0  0  0  0  0  0  0  0  0  0
   23.6990  -24.0650  -14.3240 C   0  0  0  0  0  0  0  0  0  0  0  0
   23.3850  -25.2390  -14.5520 O   0  0  0  0  0  0  0  0  0  0  0  0
   19.9070  -25.2520  -12.9690 N   0  0  0  0  0  0  0  0  0  0  0  0
   20.6720  -24.3320  -13.5670 C   0  0  0  0  0  0  0  0  0  0  0  0
   20.4660  -23.9220  -14.7110 O   0  0  0  0  0  0  0  0  0  0  0  0
   20.1580  -25.5430  -12.0340 H   0  0  0  0  0  0  0  0  0  0  0  0
   18.6710  -25.7980  -13.5150 C   0  0  0  0  0  2  0  0  0  0  0  0
   15.1940  -23.3120  -12.6880 C   0  0  0  0  0  0  0  0  0  0  0  0
   16.2160  -23.4450  -11.7250 C   0  0  0  0  0  3  0  0  0  0  0  0
   17.3410  -24.2430  -11.9890 C   0  0  0  0  0  3  0  0  0  0  0  0
   15.3140  -23.9850  -13.9220 C   0  0  0  0  0  3  0  0  0  0  0  0
   16.4420  -24.7850  -14.1870 C   0  0  0  0  0  3  0  0  0  0  0  0
   17.4610  -24.9190  -13.2230 C   0  0  0  0  0  0  0  0  0  0  0  0
   12.1080  -23.9350  -13.3980 C   0  0  0  0  0  1  0  0  0  0  0  0
   12.7000  -22.7490  -12.6600 C   0  0  0  0  0  0  0  0  0  0  0  0
   11.8320  -21.8050  -12.1530 N   0  0  0  0  0  0  0  0  0  0  0  0
   12.4060  -20.8070  -11.2570 C   0  0  0  0  0  2  0  0  0  0  0  0
   14.1910  -21.0190  -11.4920 S   0  0  0  0  0  0  0  0  0  0  0  0
   13.9880  -22.5350  -12.3560 C   0  0  0  0  0  0  0  0  0  0  0  0
   10.8210  -21.8940  -12.2060 H   0  0  0  0  0  0  0  0  0  0  0  0
   23.1780  -21.9760  -10.5870 O   0  0  0  0  0  0  0  0  0  0  0  0
   23.4110  -22.8970  -10.6250 H   0  0  0  0  0  0  0  0  0  0  0  0
   24.6470  -22.8020  -16.4150 C   0  0  1  0  0  0  0  0  0  0  0  0
   25.9440  -22.1590  -16.9600 C   0  0  0  0  0  1  0  0  0  0  0  0
   24.1260  -23.7940  -17.4880 C   0  0  0  0  0  1  0  0  0  0  0  0
   23.6090  -21.6710  -16.2720 C   0  0  0  0  0  1  0  0  0  0  0  0
   27.5870  -27.6610  -17.8640 C   0  0  0  0  0  1  0  0  0  0  0  0
   26.7080  -28.1730  -16.7080 C   0  0  0  0  0  3  0  0  0  0  0  0
   24.8610  -29.8380  -17.4130 C   0  0  0  0  0  3  0  0  0  0  0  0
   23.5710  -29.6260  -17.8220 C   0  0  0  0  0  0  0  0  0  0  0  0
   23.3720  -28.2480  -17.9140 N   0  0  0  0  0  0  0  0  0  0  0  0
   24.4600  -27.6290  -17.5730 N   0  0  0  0  0  0  0  0  0  0  0  0
   25.3750  -28.5680  -17.2060 N   0  0  0  0  0  0  0  0  0  0  0  0
   22.4690  -30.6150  -18.1240 C   0  0  0  0  0  2  0  0  0  0  0  0
   20.4330  -31.0700  -16.7040 C   0  0  0  0  0  0  0  0  0  0  0  0
   19.7900  -30.6140  -15.7590 O   0  0  0  0  0  0  0  0  0  0  0  0
   21.2480  -30.2580  -17.3970 N   0  0  0  0  0  0  0  0  0  0  0  0
   21.2040  -29.2760  -17.1620 H   0  0  0  0  0  0  0  0  0  0  0  0
   20.3650  -32.5800  -17.0070 C   0  0  0  0  0  2  0  0  0  0  0  0
   20.9260  -33.4190  -15.8290 C   0  0  0  0  0  3  0  0  0  0  0  0
   22.2870  -32.9710  -15.5400 N   0  0  0  0  0  0  0  0  0  0  0  0
   20.9230  -34.9220  -16.0530 C   0  0  0  0  0  0  0  0  0  0  0  0
   20.6310  -35.5620  -17.1910 N   0  0  0  0  0  0  0  0  0  0  0  0
   20.8590  -36.9020  -16.9360 N   0  0  0  0  0  0  0  0  0  0  0  0
   21.2790  -36.9650  -15.6680 C   0  0  0  0  0  0  0  0  0  0  0  0
   21.7010  -38.2390  -15.0010 C   0  0  0  0  0  1  0  0  0  0  0  0
   21.3090  -35.7560  -15.0660 N   0  0  0  0  0  0  0  0  0  0  0  0
   21.6450  -35.3950  -13.7450 C   0  0  0  0  0  0  0  0  0  0  0  0
   21.2040  -36.2790  -12.3190 S   0  0  0  0  0  0  0  0  0  0  0  0
   21.9020  -35.0580  -11.2920 C   0  0  0  0  0  0  0  0  0  0  0  0
   21.8510  -35.2280   -9.8080 C   0  0  0  0  0  1  0  0  0  0  0  0
   22.4320  -34.0120  -12.0170 C   0  0  0  0  0  0  0  0  0  0  0  0
   23.0340  -32.7950  -11.3610 C   0  0  0  0  0  1  0  0  0  0  0  0
   22.3180  -34.2330  -13.4360 C   0  0  0  0  0  0  0  0  0  0  0  0
   22.8870  -33.3030  -14.4620 C   0  0  0  0  0  0  0  0  0  0  0  0
   24.2380  -32.7500  -14.2460 C   0  0  0  0  0  0  0  0  0  0  0  0
   25.2940  -33.5980  -13.8470 C   0  0  0  0  0  3  0  0  0  0  0  0
   26.5780  -33.0650  -13.6190 C   0  0  0  0  0  3  0  0  0  0  0  0
   26.8050  -31.6870  -13.7810 C   0  0  0  0  0  0  0  0  0  0  0  0
   28.3730  -31.0260  -13.5070 Cl  0  0  0  0  0  0  0  0  0  0  0  0
   25.7480  -30.8430  -14.1600 C   0  0  0  0  0  3  0  0  0  0  0  0
   24.4700  -31.3700  -14.4100 C   0  0  0  0  0  3  0  0  0  0  0  0
  1  2  1  0
  2  4  1  0
  3  7  1  0
  3  4  1  0
  4  5  2  0
  6  3  1  0
  7 13  1  0
  8 16  1  0
  8  9  1  0
  9 10  1  0
 10 33  1  0
 11 10  1  0
 12 11  1  0
 12  8  1  0
 13 12  1  0
 14 13  2  0
 15 18  1  0
 16 15  1  0
 17 16  2  0
 19 25  1  0
 19 15  1  0
 20 31  1  0
 20 21  1  0
 22 21  2  0
 23 20  2  0
 24 23  1  0
 24 25  2  0
 25 22  1  0
 26 27  1  0
 27 31  2  0
 27 28  1  0
 28 29  1  0
 30 29  1  0
 31 30  1  0
 32 28  1  0
 34 33  1  0
 35 38  1  1
 35  7  1  0
 36 35  1  0
 37 35  1  0
 40 39  1  0
 40  1  1  0
 41 45  1  0
 42 41  2  0
 43 42  1  0
 43 44  2  0
 44 45  1  0
 45 40  1  0
 46 42  1  0
 46 49  1  0
 47 48  2  0
 49 50  1  0
 49 47  1  0
 51 47  1  0
 52 51  1  0
 52 53  1  0
 53 67  2  0
 54 52  1  0
 54 59  1  0
 55 56  1  0
 55 54  2  0
 56 57  2  0
 57 59  1  0
 57 58  1  0
 59 60  1  0
 60 66  2  0
 60 61  1  0
 61 62  1  0
 62 63  1  0
 64 65  1  0
 64 62  2  0
 66 64  1  0
 67 68  1  0
 67 66  1  0
 68 69  1  0
 69 70  2  0
 71 70  1  0
 71 72  1  0
 73 71  2  0
 74 68  2  0
 74 73  1  0
M  ISO  4   2 101   4 101  47 100  49 100
M  END
>  <TORSDO>  (197) 
F 16

>  <SCORE>  (197) 
-10.847

>  <name>  (197) 
196

>  <ligand_id>  (197) 
196

>  <original_smiles>  (197) 
[H]OC1([H])C([H])([H])N(C(=O)C([H])(N([H])C(=O)N=C([H])C([H])(n2nnc(C([H])([H])N([H])C(=O)C([H])([H])C3([H])N=C(c4c([H])c([H])c(Cl)c([H])c4[H])c4c(sc(C([H])([H])[H])c4C([H])([H])[H])-n4c(C([H])([H])[H])nnc43)c2[H])C([H])([H])[H])C(C([H])([H])[H])(C([H])([H])[H])C([H])([H])[H])C([H])(C(=O)N([H])C([H])([H])c2c([H])c([H])c(C3=C(C([H])([H])[H])N([H])C([H])([H])S3)c([H])c2[H])C1([H])[H]

>  <smiles>  (197) 
[H]OC1([H])C([H])([H])N(C(=O)C([H])(N([H])C(=O)N=C([H])C([H])(n2nnc(C([H])([H])N([H])C(=O)C([H])([H])C3([H])N=C(c4c([H])c([H])c(Cl)c([H])c4[H])c4c(sc(C([H])([H])[H])c4C([H])([H])[H])-n4c(C([H])([H])[H])nnc43)c2[H])C([H])([H])[H])C(C([H])([H])[H])(C([H])([H])[H])C([H])([H])[H])C([H])(C(=O)N([H])C([H])([H])c2c([H])c([H])c(C3=C(C([H])([H])[H])N([H])C([H])([H])S3)c([H])c2[H])C1([H])[H]

$$$$
197:0:0
     RDKit          3D

 86 92  0  0  1  0  0  0  0  0999 V2000
   26.6490  -26.7810  -18.1300 C   0  0  0  0  0  0  0  0  0  0  0  0
   26.0850  -26.5970  -19.2860 N   0  0  0  0  0  2  0  0  0  0  0  0
   28.0220  -26.7600  -18.1040 N   0  0  0  0  0  4  0  0  0  0  0  0
   26.0140  -27.0000  -16.8840 N   0  0  0  0  0  0  0  0  0  0  0  0
   28.5860  -26.6080  -18.9310 H   0  0  0  0  0  0  0  0  0  0  0  0
   28.5910  -26.8260  -17.2680 H   0  0  0  0  0  0  0  0  0  0  0  0
   24.6490  -27.6630  -16.8980 N   0  0  0  0  0  4  0  0  0  0  0  0
   24.2630  -27.6330  -15.9690 H   0  0  0  0  0  0  0  0  0  0  0  0
   24.0980  -27.0820  -17.5160 H   0  0  0  0  0  0  0  0  0  0  0  0
   24.6390  -29.0370  -17.4730 C   0  0  0  0  0  2  0  0  0  0  0  0
   23.3570  -29.8470  -17.3590 C   0  0  0  0  0  0  0  0  0  0  0  0
   23.5190  -31.1840  -17.3360 N   0  0  0  0  0  4  0  0  0  0  0  0
   22.1010  -29.3160  -17.3390 N   0  0  0  0  0  0  0  0  0  0  0  0
   24.4180  -31.5890  -17.5490 H   0  0  0  0  0  0  0  0  0  0  0  0
   22.8900  -31.7720  -16.7920 H   0  0  0  0  0  0  0  0  0  0  0  0
   21.9060  -28.3240  -17.3380 H   0  0  0  0  0  0  0  0  0  0  0  0
   20.4390  -30.7940  -16.5780 C   0  0  0  0  0  0  0  0  0  0  0  0
   20.1680  -30.2620  -15.4960 O   0  0  0  0  0  0  0  0  0  0  0  0
   21.0020  -30.1510  -17.6120 N   0  0  0  0  0  0  0  0  0  0  0  0
   21.2360  -30.6320  -18.4720 H   0  0  0  0  0  0  0  0  0  0  0  0
   20.2750  -32.3050  -16.7750 C   0  0  0  0  0  2  0  0  0  0  0  0
   20.8970  -33.1310  -15.6220 C   0  0  0  0  0  3  0  0  0  0  0  0
   22.2970  -32.7420  -15.4070 N   0  0  0  0  0  0  0  0  0  0  0  0
   20.8090  -34.6310  -15.8350 C   0  0  0  0  0  0  0  0  0  0  0  0
   20.4510  -35.2600  -16.9600 N   0  0  0  0  0  0  0  0  0  0  0  0
   20.6070  -36.6080  -16.7020 N   0  0  0  0  0  0  0  0  0  0  0  0
   21.0620  -36.6860  -15.4470 C   0  0  0  0  0  0  0  0  0  0  0  0
   21.4240  -37.9790  -14.7800 C   0  0  0  0  0  1  0  0  0  0  0  0
   21.1830  -35.4760  -14.8570 N   0  0  0  0  0  0  0  0  0  0  0  0
   21.5850  -35.1230  -13.5550 C   0  0  0  0  0  0  0  0  0  0  0  0
   21.1350  -35.9630  -12.1060 S   0  0  0  0  0  0  0  0  0  0  0  0
   21.9380  -34.7780  -11.1180 C   0  0  0  0  0  0  0  0  0  0  0  0
   21.9240  -34.9310   -9.6300 C   0  0  0  0  0  1  0  0  0  0  0  0
   22.5070  -33.7730  -11.8710 C   0  0  0  0  0  0  0  0  0  0  0  0
   23.2040  -32.5900  -11.2470 C   0  0  0  0  0  1  0  0  0  0  0  0
   22.3340  -33.9980  -13.2840 C   0  0  0  0  0  0  0  0  0  0  0  0
   22.9200  -33.1090  -14.3420 C   0  0  0  0  0  0  0  0  0  0  0  0
   24.3140  -32.6410  -14.1690 C   0  0  0  0  0  0  0  0  0  0  0  0
   25.3270  -33.5570  -13.8150 C   0  0  0  0  0  3  0  0  0  0  0  0
   26.6480  -33.1080  -13.6240 C   0  0  0  0  0  3  0  0  0  0  0  0
   26.9630  -31.7480  -13.7970 C   0  0  0  0  0  0  0  0  0  0  0  0
   28.5800  -31.1950  -13.5690 Cl  0  0  0  0  0  0  0  0  0  0  0  0
   25.9540  -30.8320  -14.1460 C   0  0  0  0  0  3  0  0  0  0  0  0
   24.6300  -31.2750  -14.3270 C   0  0  0  0  0  3  0  0  0  0  0  0
   26.8310  -27.1480  -15.6980 N   0  0  0  0  0  0  0  0  0  0  0  0
   27.6020  -27.7800  -15.9260 H   0  0  0  0  0  0  0  0  0  0  0  0
   25.8170  -24.5100  -15.3320 N   0  0  0  0  0  0  0  0  0  0  0  0
   26.7970  -24.9010  -14.5240 C   0  0  0  0  0  0  0  0  0  0  0  0
   27.1810  -24.2310  -13.5620 O   0  0  0  0  0  0  0  0  0  0  0  0
   27.3300  -26.1000  -14.8370 N   0  0  0  0  0  0  0  0  0  0  0  0
   25.6190  -25.1070  -16.1120 H   0  0  0  0  0  0  0  0  0  0  0  0
   28.1110  -26.3660  -14.2480 H   0  0  0  0  0  0  0  0  0  0  0  0
   24.8790  -23.4040  -15.1370 C   0  0  0  0  0  3  0  0  0  0  0  0
   21.7080  -23.7430  -12.8360 C   0  0  0  0  0  3  0  0  0  0  0  0
   21.1960  -22.5190  -12.0620 C   0  0  0  0  0  2  0  0  0  0  0  0
   22.4340  -21.6800  -11.8220 C   0  0  0  0  0  3  0  0  0  0  0  0
   23.3490  -21.9810  -13.0080 C   0  0  0  0  0  2  0  0  0  0  0  0
   22.9170  -23.2770  -13.5460 N   0  0  0  0  0  0  0  0  0  0  0  0
   23.6110  -24.0040  -14.4620 C   0  0  0  0  0  0  0  0  0  0  0  0
   23.2890  -25.1640  -14.7530 O   0  0  0  0  0  0  0  0  0  0  0  0
   19.8100  -25.2370  -13.1770 N   0  0  0  0  0  0  0  0  0  0  0  0
   20.5790  -24.2900  -13.7250 C   0  0  0  0  0  0  0  0  0  0  0  0
   20.3770  -23.8240  -14.8480 O   0  0  0  0  0  0  0  0  0  0  0  0
   20.0580  -25.5760  -12.2570 H   0  0  0  0  0  0  0  0  0  0  0  0
   18.5750  -25.7530  -13.7520 C   0  0  0  0  0  2  0  0  0  0  0  0
   15.0830  -23.3600  -12.7360 C   0  0  0  0  0  0  0  0  0  0  0  0
   16.1030  -23.5640  -11.7840 C   0  0  0  0  0  3  0  0  0  0  0  0
   17.2340  -24.3350  -12.1100 C   0  0  0  0  0  3  0  0  0  0  0  0
   15.2090  -23.9290  -14.0210 C   0  0  0  0  0  3  0  0  0  0  0  0
   16.3420  -24.7000  -14.3460 C   0  0  0  0  0  3  0  0  0  0  0  0
   17.3590  -24.9070  -13.3940 C   0  0  0  0  0  0  0  0  0  0  0  0
   12.0060  -23.9220  -13.5250 C   0  0  0  0  0  1  0  0  0  0  0  0
   12.5880  -22.8060  -12.6790 C   0  0  0  0  0  0  0  0  0  0  0  0
   11.7140  -21.9140  -12.0950 N   0  0  0  0  0  0  0  0  0  0  0  0
   12.2780  -20.9980  -11.1090 C   0  0  0  0  0  2  0  0  0  0  0  0
   14.0650  -21.1860  -11.3470 S   0  0  0  0  0  0  0  0  0  0  0  0
   13.8740  -22.6170  -12.3470 C   0  0  0  0  0  0  0  0  0  0  0  0
   10.7040  -21.9990  -12.1640 H   0  0  0  0  0  0  0  0  0  0  0  0
   23.0800  -22.0850  -10.6260 O   0  0  0  0  0  0  0  0  0  0  0  0
   23.3130  -23.0050  -10.7040 H   0  0  0  0  0  0  0  0  0  0  0  0
   24.5950  -22.7570  -16.5430 C   0  0  1  0  0  0  0  0  0  0  0  0
   25.9050  -22.1330  -17.0760 C   0  0  0  0  0  1  0  0  0  0  0  0
   24.0860  -23.7650  -17.5880 C   0  0  0  0  0  1  0  0  0  0  0  0
   23.5480  -21.6280  -16.4650 C   0  0  0  0  0  1  0  0  0  0  0  0
   24.1950  -26.1000  -20.4800 C   0  0  0  0  0  1  0  0  0  0  0  0
   24.6810  -26.5830  -19.2330 O   0  0  0  0  0  0  0  0  0  0  0  0
  1  3  2  0
  1  4  1  0
  2 86  1  0
  2  1  1  0
  3  6  1  0
  4 45  1  0
  5  3  1  0
  7  4  1  0
  7  8  1  0
  9  7  1  0
 10 11  1  0
 10  7  1  0
 11 13  1  0
 11 12  2  0
 12 15  1  0
 13 16  1  0
 14 12  1  0
 17 18  2  0
 19 13  1  0
 19 17  1  0
 20 19  1  0
 21 17  1  0
 22 21  1  0
 22 23  1  0
 23 37  2  0
 24 22  1  0
 24 29  1  0
 25 26  1  0
 25 24  2  0
 26 27  2  0
 27 29  1  0
 27 28  1  0
 29 30  1  0
 30 36  2  0
 30 31  1  0
 31 32  1  0
 32 33  1  0
 34 35  1  0
 34 32  2  0
 36 34  1  0
 37 38  1  0
 37 36  1  0
 38 39  1  0
 39 40  2  0
 41 40  1  0
 41 42  1  0
 43 41  2  0
 44 38  2  0
 44 43  1  0
 45 50  1  0
 46 45  1  0
 47 53  1  0
 47 48  1  0
 48 49  2  0
 50 48  1  0
 50 52  1  0
 51 47  1  0
 53 59  1  0
 54 62  1  0
 54 55  1  0
 55 56  1  0
 56 79  1  0
 57 56  1  0
 58 57  1  0
 58 54  1  0
 59 58  1  0
 60 59  2  0
 61 64  1  0
 62 61  1  0
 63 62  2  0
 65 71  1  0
 65 61  1  0
 66 77  1  0
 66 67  1  0
 68 67  2  0
 69 66  2  0
 70 69  1  0
 70 71  2  0
 71 68  1  0
 72 73  1  0
 73 77  2  0
 73 74  1  0
 74 75  1  0
 76 75  1  0
 77 76  1  0
 78 74  1  0
 80 79  1  0
 81 84  1  1
 81 53  1  0
 82 81  1  0
 83 81  1  0
 85 86  1  0
M  ISO  4  17 100  19 100  48 101  50 101
M  END
>  <TORSDO>  (198) 
F 18

>  <SCORE>  (198) 
-10.585

>  <name>  (198) 
197

>  <ligand_id>  (198) 
197

>  <original_smiles>  (198) 
[H]OC1([H])C([H])([H])N(C(=O)C([H])(N([H])C(=O)N([H])N([H])N(C(=NOC([H])([H])[H])N([H])[H])[N+]([H])([H])C([H])([H])C(N([H])[H])=[N+]([H])N([H])C(=O)C([H])([H])C2([H])N=C(c3c([H])c([H])c(Cl)c([H])c3[H])c3c(sc(C([H])([H])[H])c3C([H])([H])[H])-n3c(C([H])([H])[H])nnc32)C(C([H])([H])[H])(C([H])([H])[H])C([H])([H])[H])C([H])(C(=O)N([H])C([H])([H])c2c([H])c([H])c(C3=C(C([H])([H])[H])N([H])C([H])([H])S3)c([H])c2[H])C1([H])[H]

>  <smiles>  (198) 
[H]OC1([H])C([H])([H])N(C(=O)C([H])(N([H])C(=O)N([H])N([H])N(C(=NOC([H])([H])[H])N([H])[H])[N+]([H])([H])C([H])([H])C(N([H])[H])=[N+]([H])N([H])C(=O)C([H])([H])C2([H])N=C(c3c([H])c([H])c(Cl)c([H])c3[H])c3c(sc(C([H])([H])[H])c3C([H])([H])[H])-n3c(C([H])([H])[H])nnc32)C(C([H])([H])[H])(C([H])([H])[H])C([H])([H])[H])C([H])(C(=O)N([H])C([H])([H])c2c([H])c([H])c(C3=C(C([H])([H])[H])N([H])C([H])([H])S3)c([H])c2[H])C1([H])[H]

$$$$
198:0:0
     RDKit          3D

 78 84  0  0  1  0  0  0  0  0999 V2000
   27.0160  -27.2850  -15.9010 N   0  0  0  0  0  2  0  0  0  0  0  0
   25.8200  -27.3320  -16.2470 N   0  0  0  0  0  2  0  0  0  0  0  0
   25.9090  -24.7220  -15.2700 N   0  0  0  0  0  0  0  0  0  0  0  0
   26.9350  -25.1840  -14.5480 C   0  0  0  0  0  0  0  0  0  0  0  0
   27.3540  -24.6040  -13.5460 O   0  0  0  0  0  0  0  0  0  0  0  0
   27.5250  -26.3100  -14.9940 N   0  0  0  0  0  0  0  0  0  0  0  0
   25.6400  -25.2580  -16.0780 H   0  0  0  0  0  0  0  0  0  0  0  0
   28.3980  -26.5790  -14.5610 H   0  0  0  0  0  0  0  0  0  0  0  0
   25.0440  -23.5830  -14.9520 C   0  0  0  0  0  3  0  0  0  0  0  0
   21.7560  -23.7930  -12.7990 C   0  0  0  0  0  3  0  0  0  0  0  0
   21.2090  -22.5310  -12.1120 C   0  0  0  0  0  2  0  0  0  0  0  0
   22.4370  -21.6850  -11.8530 C   0  0  0  0  0  3  0  0  0  0  0  0
   23.4100  -22.0450  -12.9770 C   0  0  0  0  0  2  0  0  0  0  0  0
   23.0020  -23.3680  -13.4690 N   0  0  0  0  0  0  0  0  0  0  0  0
   23.7390  -24.1420  -14.3090 C   0  0  0  0  0  0  0  0  0  0  0  0
   23.4250  -25.3130  -14.5510 O   0  0  0  0  0  0  0  0  0  0  0  0
   19.9060  -25.3360  -13.1790 N   0  0  0  0  0  0  0  0  0  0  0  0
   20.6690  -24.3780  -13.7160 C   0  0  0  0  0  0  0  0  0  0  0  0
   20.4910  -23.9310  -14.8510 O   0  0  0  0  0  0  0  0  0  0  0  0
   20.1340  -25.6550  -12.2470 H   0  0  0  0  0  0  0  0  0  0  0  0
   18.7030  -25.8910  -13.7860 C   0  0  0  0  0  2  0  0  0  0  0  0
   15.1160  -23.6010  -12.8760 C   0  0  0  0  0  0  0  0  0  0  0  0
   16.1260  -23.7480  -11.9040 C   0  0  0  0  0  3  0  0  0  0  0  0
   17.2870  -24.4860  -12.1950 C   0  0  0  0  0  3  0  0  0  0  0  0
   15.2820  -24.1930  -14.1460 C   0  0  0  0  0  3  0  0  0  0  0  0
   16.4460  -24.9300  -14.4360 C   0  0  0  0  0  3  0  0  0  0  0  0
   17.4550  -25.0820  -13.4630 C   0  0  0  0  0  0  0  0  0  0  0  0
   12.0690  -24.3010  -13.6780 C   0  0  0  0  0  1  0  0  0  0  0  0
   12.6010  -23.1400  -12.8610 C   0  0  0  0  0  0  0  0  0  0  0  0
   11.6880  -22.2630  -12.3140 N   0  0  0  0  0  0  0  0  0  0  0  0
   12.2050  -21.2970  -11.3520 C   0  0  0  0  0  2  0  0  0  0  0  0
   14.0020  -21.4240  -11.5650 S   0  0  0  0  0  0  0  0  0  0  0  0
   13.8740  -22.8930  -12.5210 C   0  0  0  0  0  0  0  0  0  0  0  0
   10.6830  -22.3880  -12.3910 H   0  0  0  0  0  0  0  0  0  0  0  0
   23.0210  -22.0310  -10.6080 O   0  0  0  0  0  0  0  0  0  0  0  0
   23.2590  -22.9520  -10.6300 H   0  0  0  0  0  0  0  0  0  0  0  0
   24.7950  -22.7750  -16.2790 C   0  0  1  0  0  0  0  0  0  0  0  0
   26.1240  -22.1130  -16.7120 C   0  0  0  0  0  1  0  0  0  0  0  0
   24.2950  -23.6560  -17.4500 C   0  0  0  0  0  1  0  0  0  0  0  0
   23.7750  -21.6340  -16.0730 C   0  0  0  0  0  1  0  0  0  0  0  0
   25.5730  -28.4020  -17.1070 O   0  0  0  0  0  0  0  0  0  0  0  0
   23.8690  -27.9870  -18.6770 C   0  0  0  0  0  0  0  0  0  0  0  0
   24.2170  -28.4250  -17.4570 N   0  0  0  0  0  0  0  0  0  0  0  0
   24.6760  -27.4280  -19.4290 O   0  0  0  0  0  0  0  0  0  0  0  0
   23.6660  -28.9420  -16.7870 H   0  0  0  0  0  0  0  0  0  0  0  0
   22.3990  -28.1360  -19.0930 C   0  0  0  0  0  2  0  0  0  0  0  0
   22.2000  -29.5410  -19.7090 C   0  0  0  0  0  0  0  0  0  0  0  0
   21.3440  -30.4150  -19.1520 N   0  0  0  0  0  0  0  0  0  0  0  0
   22.7870  -29.8500  -20.7470 O   0  0  0  0  0  0  0  0  0  0  0  0
   21.1420  -31.3330  -19.5250 H   0  0  0  0  0  0  0  0  0  0  0  0
   20.4490  -31.0480  -16.9970 C   0  0  0  0  0  0  0  0  0  0  0  0
   20.0990  -30.6660  -15.8810 O   0  0  0  0  0  0  0  0  0  0  0  0
   20.6330  -30.1420  -17.9670 N   0  0  0  0  0  0  0  0  0  0  0  0
   20.4520  -29.1540  -17.8480 H   0  0  0  0  0  0  0  0  0  0  0  0
   20.6930  -32.5530  -17.2540 C   0  0  0  0  0  2  0  0  0  0  0  0
   21.2640  -33.3060  -16.0230 C   0  0  0  0  0  3  0  0  0  0  0  0
   22.5960  -32.7780  -15.7270 N   0  0  0  0  0  0  0  0  0  0  0  0
   21.3380  -34.8150  -16.1980 C   0  0  0  0  0  0  0  0  0  0  0  0
   21.0880  -35.5050  -17.3190 N   0  0  0  0  0  0  0  0  0  0  0  0
   21.3620  -36.8250  -17.0170 N   0  0  0  0  0  0  0  0  0  0  0  0
   21.7630  -36.8300  -15.7410 C   0  0  0  0  0  0  0  0  0  0  0  0
   22.2170  -38.0650  -15.0260 C   0  0  0  0  0  1  0  0  0  0  0  0
   21.7380  -35.6010  -15.1800 N   0  0  0  0  0  0  0  0  0  0  0  0
   22.0360  -35.1860  -13.8670 C   0  0  0  0  0  0  0  0  0  0  0  0
   21.6020  -36.0400  -12.4210 S   0  0  0  0  0  0  0  0  0  0  0  0
   22.2330  -34.7620  -11.4240 C   0  0  0  0  0  0  0  0  0  0  0  0
   22.1610  -34.8870   -9.9360 C   0  0  0  0  0  1  0  0  0  0  0  0
   22.7350  -33.7190  -12.1730 C   0  0  0  0  0  0  0  0  0  0  0  0
   23.2790  -32.4600  -11.5460 C   0  0  0  0  0  1  0  0  0  0  0  0
   22.6560  -33.9870  -13.5860 C   0  0  0  0  0  0  0  0  0  0  0  0
   23.2000  -33.0620  -14.6340 C   0  0  0  0  0  0  0  0  0  0  0  0
   24.5300  -32.4520  -14.4180 C   0  0  0  0  0  0  0  0  0  0  0  0
   25.5880  -33.2330  -13.9050 C   0  0  0  0  0  3  0  0  0  0  0  0
   26.8470  -32.6480  -13.6720 C   0  0  0  0  0  3  0  0  0  0  0  0
   27.0520  -31.2840  -13.9500 C   0  0  0  0  0  0  0  0  0  0  0  0
   28.5900  -30.5640  -13.6610 Cl  0  0  0  0  0  0  0  0  0  0  0  0
   26.0000  -30.5050  -14.4630 C   0  0  0  0  0  3  0  0  0  0  0  0
   24.7410  -31.0860  -14.7050 C   0  0  0  0  0  3  0  0  0  0  0  0
  1  6  1  0
  2  1  1  0
  3  9  1  0
  3  4  1  0
  4  5  2  0
  6  8  1  0
  6  4  1  0
  7  3  1  0
  9 15  1  0
 10 18  1  0
 10 11  1  0
 11 12  1  0
 12 35  1  0
 13 12  1  0
 14 13  1  0
 14 10  1  0
 15 14  1  0
 16 15  2  0
 17 20  1  0
 18 17  1  0
 19 18  2  0
 21 27  1  0
 21 17  1  0
 22 33  1  0
 22 23  1  0
 24 23  2  0
 25 22  2  0
 26 25  1  0
 26 27  2  0
 27 24  1  0
 28 29  1  0
 29 33  2  0
 29 30  1  0
 30 31  1  0
 32 31  1  0
 33 32  1  0
 34 30  1  0
 36 35  1  0
 37 40  1  1
 37  9  1  0
 38 37  1  0
 39 37  1  0
 41  2  1  0
 42 43  1  0
 43 41  1  0
 43 45  1  0
 44 42  2  0
 46 42  1  0
 47 48  1  0
 47 46  1  0
 48 53  1  0
 49 47  2  0
 50 48  1  0
 51 52  2  0
 53 54  1  0
 53 51  1  0
 55 51  1  0
 56 55  1  0
 56 57  1  0
 57 71  2  0
 58 56  1  0
 58 63  1  0
 59 60  1  0
 59 58  2  0
 60 61  2  0
 61 63  1  0
 61 62  1  0
 63 64  1  0
 64 70  2  0
 64 65  1  0
 65 66  1  0
 66 67  1  0
 68 69  1  0
 68 66  2  0
 70 68  1  0
 71 72  1  0
 71 70  1  0
 72 73  1  0
 73 74  2  0
 75 74  1  0
 75 76  1  0
 77 75  2  0
 78 77  1  0
 78 72  2  0
M  ISO  4   4 101   6 101  51 100  53 100
M  END
>  <TORSDO>  (199) 
F 17

>  <SCORE>  (199) 
-12.456

>  <name>  (199) 
198

>  <ligand_id>  (199) 
198

>  <original_smiles>  (199) 
[H]OC1([H])C([H])([H])N(C(=O)C([H])(N([H])C(=O)N([H])N=NON([H])C(=O)C([H])([H])C(=O)N([H])N([H])C(=O)C([H])([H])C2([H])N=C(c3c([H])c([H])c(Cl)c([H])c3[H])c3c(sc(C([H])([H])[H])c3C([H])([H])[H])-n3c(C([H])([H])[H])nnc32)C(C([H])([H])[H])(C([H])([H])[H])C([H])([H])[H])C([H])(C(=O)N([H])C([H])([H])c2c([H])c([H])c(C3=C(C([H])([H])[H])N([H])C([H])([H])S3)c([H])c2[H])C1([H])[H]

>  <smiles>  (199) 
[H]OC1([H])C([H])([H])N(C(=O)C([H])(N([H])C(=O)N([H])N=NON([H])C(=O)C([H])([H])C(=O)N([H])N([H])C(=O)C([H])([H])C2([H])N=C(c3c([H])c([H])c(Cl)c([H])c3[H])c3c(sc(C([H])([H])[H])c3C([H])([H])[H])-n3c(C([H])([H])[H])nnc32)C(C([H])([H])[H])(C([H])([H])[H])C([H])([H])[H])C([H])(C(=O)N([H])C([H])([H])c2c([H])c([H])c(C3=C(C([H])([H])[H])N([H])C([H])([H])S3)c([H])c2[H])C1([H])[H]

$$$$
199:0:0
     RDKit          3D

 76 83  0  0  1  0  0  0  0  0999 V2000
   24.4980  -29.5410  -18.9000 C   0  0  0  0  0  2  0  0  0  0  0  0
   25.7680  -28.6950  -19.1140 C   0  0  0  0  0  2  0  0  0  0  0  0
   24.2520  -29.9490  -17.4310 C   0  0  0  0  0  2  0  0  0  0  0  0
   25.7340  -27.3150  -18.4440 C   0  0  0  0  0  2  0  0  0  0  0  0
   23.0800  -29.2100  -16.7470 C   0  0  0  0  0  3  0  0  0  0  0  0
   23.2830  -27.6370  -16.6490 C   0  0  0  0  0  3  0  0  0  0  0  0
   24.7060  -26.9320  -16.2950 C   0  0  0  0  0  3  0  0  0  0  0  0
   25.7880  -27.4880  -17.0320 O   0  0  0  0  0  0  0  0  0  0  0  0
   21.0240  -30.6490  -16.7270 C   0  0  0  0  0  0  0  0  0  0  0  0
   20.4050  -30.3300  -15.7120 O   0  0  0  0  0  0  0  0  0  0  0  0
   21.8210  -29.7390  -17.3590 N   0  0  0  0  0  0  0  0  0  0  0  0
   21.9710  -29.9720  -18.3310 H   0  0  0  0  0  0  0  0  0  0  0  0
   21.0980  -32.1500  -17.1230 C   0  0  0  0  0  2  0  0  0  0  0  0
   21.5510  -33.0340  -15.9080 C   0  0  0  0  0  3  0  0  0  0  0  0
   22.9430  -32.7010  -15.5910 N   0  0  0  0  0  0  0  0  0  0  0  0
   21.4190  -34.5480  -16.0690 C   0  0  0  0  0  0  0  0  0  0  0  0
   21.0840  -35.2150  -17.1820 N   0  0  0  0  0  0  0  0  0  0  0  0
   21.1950  -36.5580  -16.8680 N   0  0  0  0  0  0  0  0  0  0  0  0
   21.5950  -36.6030  -15.5930 C   0  0  0  0  0  0  0  0  0  0  0  0
   21.9040  -37.8820  -14.8700 C   0  0  0  0  0  1  0  0  0  0  0  0
   21.7190  -35.3740  -15.0410 N   0  0  0  0  0  0  0  0  0  0  0  0
   22.0670  -34.9960  -13.7280 C   0  0  0  0  0  0  0  0  0  0  0  0
   21.5380  -35.7880  -12.2770 S   0  0  0  0  0  0  0  0  0  0  0  0
   22.3200  -34.5910  -11.2830 C   0  0  0  0  0  0  0  0  0  0  0  0
   22.2380  -34.7000   -9.7940 C   0  0  0  0  0  1  0  0  0  0  0  0
   22.9420  -33.6190  -12.0360 C   0  0  0  0  0  0  0  0  0  0  0  0
   23.6340  -32.4310  -11.4180 C   0  0  0  0  0  1  0  0  0  0  0  0
   22.8300  -33.8820  -13.4470 C   0  0  0  0  0  0  0  0  0  0  0  0
   23.4960  -33.0420  -14.4890 C   0  0  0  0  0  0  0  0  0  0  0  0
   24.8990  -32.6150  -14.2600 C   0  0  0  0  0  0  0  0  0  0  0  0
   25.8670  -33.5550  -13.8490 C   0  0  0  0  0  3  0  0  0  0  0  0
   27.1970  -33.1500  -13.6130 C   0  0  0  0  0  3  0  0  0  0  0  0
   27.5790  -31.8170  -13.8440 C   0  0  0  0  0  0  0  0  0  0  0  0
   29.1910  -31.2780  -13.5730 Cl  0  0  0  0  0  0  0  0  0  0  0  0
   26.6350  -30.8900  -14.2710 C   0  0  0  0  0  3  0  0  0  0  0  0
   25.2930  -31.2700  -14.4040 C   0  0  0  0  0  3  0  0  0  0  0  0
   22.2840  -27.1970  -15.7530 O   0  0  0  0  0  0  0  0  0  0  0  0
   21.4970  -27.6950  -15.9590 H   0  0  0  0  0  0  0  0  0  0  0  0
   25.2590  -26.7780  -14.8120 C   0  0  0  0  0  2  0  0  0  0  0  0
   26.4720  -25.9630  -14.5150 O   0  0  0  0  0  0  0  0  0  0  0  0
   25.6940  -24.0050  -15.3010 N   0  0  0  0  0  0  0  0  0  0  0  0
   26.5120  -24.5560  -14.3640 C   0  0  0  0  0  0  0  0  0  0  0  0
   27.1080  -23.9110  -13.4860 O   0  0  0  0  0  0  0  0  0  0  0  0
   25.3900  -24.6600  -16.0020 H   0  0  0  0  0  0  0  0  0  0  0  0
   24.7430  -22.9300  -15.0650 C   0  0  0  0  0  3  0  0  0  0  0  0
   21.7470  -23.5170  -12.5730 C   0  0  0  0  0  3  0  0  0  0  0  0
   21.2150  -22.3590  -11.7180 C   0  0  0  0  0  2  0  0  0  0  0  0
   22.4190  -21.4600  -11.5160 C   0  0  0  0  0  3  0  0  0  0  0  0
   23.2770  -21.6530  -12.7660 C   0  0  0  0  0  2  0  0  0  0  0  0
   22.8800  -22.9430  -13.3310 N   0  0  0  0  0  0  0  0  0  0  0  0
   23.5240  -23.5770  -14.3370 C   0  0  0  0  0  0  0  0  0  0  0  0
   23.1780  -24.7020  -14.6880 O   0  0  0  0  0  0  0  0  0  0  0  0
   19.8780  -25.0700  -12.8210 N   0  0  0  0  0  0  0  0  0  0  0  0
   20.5990  -24.1120  -13.4110 C   0  0  0  0  0  0  0  0  0  0  0  0
   20.3450  -23.6730  -14.5340 O   0  0  0  0  0  0  0  0  0  0  0  0
   20.1670  -25.3890  -11.9060 H   0  0  0  0  0  0  0  0  0  0  0  0
   18.6400  -25.6300  -13.3490 C   0  0  0  0  0  2  0  0  0  0  0  0
   15.1620  -23.1530  -12.5020 C   0  0  0  0  0  0  0  0  0  0  0  0
   16.1900  -23.2830  -11.5450 C   0  0  0  0  0  3  0  0  0  0  0  0
   17.3140  -24.0800  -11.8170 C   0  0  0  0  0  3  0  0  0  0  0  0
   15.2760  -23.8240  -13.7380 C   0  0  0  0  0  3  0  0  0  0  0  0
   16.4040  -24.6210  -14.0090 C   0  0  0  0  0  3  0  0  0  0  0  0
   17.4290  -24.7560  -13.0500 C   0  0  0  0  0  0  0  0  0  0  0  0
   12.0730  -23.7750  -13.2000 C   0  0  0  0  0  1  0  0  0  0  0  0
   12.6680  -22.5930  -12.4610 C   0  0  0  0  0  0  0  0  0  0  0  0
   11.8010  -21.6500  -11.9460 N   0  0  0  0  0  0  0  0  0  0  0  0
   12.3780  -20.6530  -11.0520 C   0  0  0  0  0  2  0  0  0  0  0  0
   14.1620  -20.8640  -11.2940 S   0  0  0  0  0  0  0  0  0  0  0  0
   13.9570  -22.3770  -12.1620 C   0  0  0  0  0  0  0  0  0  0  0  0
   10.7910  -21.7380  -11.9970 H   0  0  0  0  0  0  0  0  0  0  0  0
   23.1570  -21.8740  -10.3790 O   0  0  0  0  0  0  0  0  0  0  0  0
   23.4350  -22.7750  -10.5110 H   0  0  0  0  0  0  0  0  0  0  0  0
   24.3880  -22.3430  -16.4770 C   0  0  1  0  0  0  0  0  0  0  0  0
   25.6140  -21.5690  -17.0090 C   0  0  0  0  0  1  0  0  0  0  0  0
   24.0220  -23.4240  -17.5260 C   0  0  0  0  0  1  0  0  0  0  0  0
   23.2150  -21.3460  -16.3980 C   0  0  0  0  0  1  0  0  0  0  0  0
  1  3  1  0
  2  1  1  0
  2  4  1  0
  3  5  1  0
  4  8  1  0
  5 11  1  0
  5  6  1  0
  6  7  1  0
  6 37  1  0
  7 39  1  0
  8  7  1  0
  9 10  2  0
 11  9  1  0
 12 11  1  0
 13  9  1  0
 14 13  1  0
 14 15  1  0
 15 29  2  0
 16 14  1  0
 16 21  1  0
 17 18  1  0
 17 16  2  0
 18 19  2  0
 19 21  1  0
 19 20  1  0
 21 22  1  0
 22 28  2  0
 22 23  1  0
 23 24  1  0
 24 25  1  0
 26 27  1  0
 26 24  2  0
 28 26  1  0
 29 30  1  0
 29 28  1  0
 30 31  1  0
 31 32  2  0
 33 32  1  0
 33 34  1  0
 35 33  2  0
 36 35  1  0
 36 30  2  0
 38 37  1  0
 39 40  1  0
 40 42  1  0
 41 45  1  0
 41 42  1  0
 42 43  2  0
 44 41  1  0
 45 51  1  0
 46 54  1  0
 46 47  1  0
 47 48  1  0
 48 71  1  0
 49 48  1  0
 50 49  1  0
 50 46  1  0
 51 50  1  0
 52 51  2  0
 53 56  1  0
 54 53  1  0
 55 54  2  0
 57 63  1  0
 57 53  1  0
 58 69  1  0
 58 59  1  0
 60 59  2  0
 61 58  2  0
 62 61  1  0
 62 63  2  0
 63 60  1  0
 64 65  1  0
 65 69  2  0
 65 66  1  0
 66 67  1  0
 68 67  1  0
 69 68  1  0
 70 66  1  0
 72 71  1  0
 73 76  1  1
 73 45  1  0
 74 73  1  0
 75 73  1  0
M  ISO  4   9 100  11 100  40 101  42 101
M  END
>  <TORSDO>  (200) 
F 16

>  <SCORE>  (200) 
-7.463

>  <name>  (200) 
199

>  <ligand_id>  (200) 
199

>  <original_smiles>  (200) 
[H]OC1([H])C([H])([H])N(C(=O)C([H])(N([H])C(=O)OC([H])([H])C2([H])OC([H])([H])C([H])([H])C([H])([H])C([H])([H])C([H])(N([H])C(=O)C([H])([H])C3([H])N=C(c4c([H])c([H])c(Cl)c([H])c4[H])c4c(sc(C([H])([H])[H])c4C([H])([H])[H])-n4c(C([H])([H])[H])nnc43)C2([H])O[H])C(C([H])([H])[H])(C([H])([H])[H])C([H])([H])[H])C([H])(C(=O)N([H])C([H])([H])c2c([H])c([H])c(C3=C(C([H])([H])[H])N([H])C([H])([H])S3)c([H])c2[H])C1([H])[H]

>  <smiles>  (200) 
[H]OC1([H])C([H])([H])N(C(=O)C([H])(N([H])C(=O)OC([H])([H])C2([H])OC([H])([H])C([H])([H])C([H])([H])C([H])([H])C([H])(N([H])C(=O)C([H])([H])C3([H])N=C(c4c([H])c([H])c(Cl)c([H])c4[H])c4c(sc(C([H])([H])[H])c4C([H])([H])[H])-n4c(C([H])([H])[H])nnc43)C2([H])O[H])C(C([H])([H])[H])(C([H])([H])[H])C([H])([H])[H])C([H])(C(=O)N([H])C([H])([H])c2c([H])c([H])c(C3=C(C([H])([H])[H])N([H])C([H])([H])S3)c([H])c2[H])C1([H])[H]

$$$$
