ligand
                    3D
 Structure written by MMmdl.
125131  0  0  1  0            999 V2000
  -30.0063   13.2508  -32.9100 N   0  0  0  0  0  0
  -29.3660   12.7747  -30.6175 C   0  0  0  0  0  0
  -28.8186   15.7821  -30.1982 C   0  0  0  0  0  0
  -31.0897   15.4339  -31.1677 C   0  0  0  0  0  0
  -29.1962   16.1588  -32.6378 C   0  0  0  0  0  0
  -28.3333   11.5111  -28.6861 C   0  0  1  0  0  0
  -26.9047   12.8718  -30.0559 C   0  0  0  0  0  0
  -29.3781   11.9090  -27.6257 C   0  0  0  0  0  0
  -30.5204   11.5593  -23.2124 C   0  0  0  0  0  0
  -29.8480   11.4348  -21.9847 C   0  0  0  0  0  0
  -28.6063   10.7980  -21.9085 C   0  0  0  0  0  0
  -28.6775   10.3990  -24.2866 C   0  0  0  0  0  0
  -28.3899   10.1228  -19.3779 C   0  0  0  0  0  0
  -26.2899   10.3405  -18.8452 C   0  0  0  0  0  0
  -29.1979   13.7679  -31.7965 C   0  0  2  0  0  0
  -29.5767   15.2563  -31.4397 C   0  0  0  0  0  0
  -28.2934   12.4297  -29.8495 N   0  0  0  0  0  0
  -30.4956   12.3147  -30.4224 O   0  0  0  0  0  0
  -26.9265   11.5067  -28.0814 C   0  0  0  0  0  0
  -26.0417   11.9047  -29.2474 C   0  0  1  0  0  0
  -25.6423   10.7874  -30.0090 O   0  0  0  0  0  0
  -29.6865   13.0918  -27.4714 O   0  0  0  0  0  0
  -29.8458   10.9022  -26.8802 N   0  0  0  0  0  0
  -30.6846   11.0789  -25.6964 C   0  0  0  0  0  0
  -29.9357   11.0110  -24.3655 C   0  0  0  0  0  0
  -28.0166   10.3025  -23.0709 C   0  0  0  0  0  0
  -27.9177   10.5927  -20.6094 C   0  0  0  0  0  0
  -27.4792    9.9996  -18.4308 N   0  0  0  0  0  0
  -26.2096   10.9115  -20.4692 S   0  0  0  0  0  0
  -29.7937    9.7072  -18.9940 C   0  0  0  0  0  0
  -29.5560   12.6626  -34.0290 C   0  0  0  0  0  0
  -30.6353   12.1673  -35.0094 C   0  0  0  0  0  0
  -28.3596   12.5135  -34.2771 O   0  0  0  0  0  0
  -31.8815   12.1442  -34.5340 F   0  0  0  0  0  0
  -30.4582   12.5414  -36.4637 C   0  0  0  0  0  0
  -30.2582   11.1058  -36.0230 C   0  0  0  0  0  0
  -31.7543   12.1706  -23.3610 O   0  0  0  0  0  0
  -32.3289   12.9538  -22.3148 C   0  0  0  0  0  0
  -31.7665   15.1919  -23.2251 O   0  0  0  0  0  0
  -30.8195   15.0032  -24.2756 C   0  0  0  0  0  0
  -30.1534   16.3405  -24.6531 C   0  0  0  0  0  0
  -30.8877   17.0718  -25.6273 O   0  0  0  0  0  0
  -31.6342   14.3169  -22.1046 C   0  0  0  0  0  0
  -31.8976   17.9283  -25.1108 C   0  0  0  0  0  0
  -32.5530   18.7416  -26.2494 C   0  0  0  0  0  0
  -33.0443   17.9336  -27.3733 N   0  0  0  0  0  0
  -34.1004   16.9976  -26.9653 C   0  0  0  0  0  0
  -34.5757   16.1738  -28.1817 C   0  0  0  0  0  0
  -35.1489   17.0480  -29.2133 N   0  0  0  0  0  0
  -34.0929   17.9845  -29.6251 C   0  0  0  0  0  0
  -33.5748   18.8128  -28.4249 C   0  0  0  0  0  0
  -36.0061   16.5195  -30.1696 C   0  0  0  0  0  0
  -37.3542   16.8965  -30.1634 C   0  0  0  0  0  0
  -38.2303   16.3835  -31.1363 C   0  0  0  0  0  0
  -37.7526   15.5184  -32.0740 N   0  0  0  0  0  0
  -36.4737   15.1266  -32.0855 N   0  0  0  0  0  0
  -35.6090   15.6014  -31.1596 C   0  0  0  0  0  0
  -34.3134   15.0972  -31.2398 N   0  0  0  0  0  0
  -39.7004   16.7404  -31.2115 C   0  0  0  0  0  0
  -40.6520   16.0406  -32.0011 C   0  0  0  0  0  0
  -41.9912   16.4304  -32.0349 C   0  0  0  0  0  0
  -42.4278   17.5112  -31.2810 C   0  0  0  0  0  0
  -41.5228   18.2167  -30.5017 C   0  0  0  0  0  0
  -40.1839   17.8361  -30.4705 C   0  0  0  0  0  0
  -40.3319   14.9480  -32.7660 O   0  0  0  0  0  0
  -31.0053   13.3068  -32.7720 H   0  0  0  0  0  0
  -27.7452   15.6673  -30.3120 H   0  0  0  0  0  0
  -29.0114   16.8419  -30.0243 H   0  0  0  0  0  0
  -29.1142   15.2585  -29.2894 H   0  0  0  0  0  0
  -31.6869   15.1402  -32.0282 H   0  0  0  0  0  0
  -31.4248   14.8444  -30.3136 H   0  0  0  0  0  0
  -31.3339   16.4743  -30.9502 H   0  0  0  0  0  0
  -29.7502   15.8903  -33.5376 H   0  0  0  0  0  0
  -29.3970   17.2109  -32.4312 H   0  0  0  0  0  0
  -28.1377   16.0749  -32.8804 H   0  0  0  0  0  0
  -28.5507   10.4994  -29.0329 H   0  0  0  0  0  0
  -26.7845   13.8764  -29.6542 H   0  0  0  0  0  0
  -26.5936   12.8934  -31.0994 H   0  0  0  0  0  0
  -30.2863   11.8171  -21.0773 H   0  0  0  0  0  0
  -28.2051    9.9754  -25.1608 H   0  0  0  0  0  0
  -25.4112   10.3121  -18.2204 H   0  0  0  0  0  0
  -28.1583   13.7686  -32.1172 H   0  0  0  0  0  0
  -26.6993   10.5253  -27.6647 H   0  0  0  0  0  0
  -26.8473   12.2428  -27.2822 H   0  0  0  0  0  0
  -25.1479   12.4103  -28.8837 H   0  0  0  0  0  0
  -25.1842   11.1094  -30.7940 H   0  0  0  0  0  0
  -29.5070    9.9669  -27.0603 H   0  0  0  0  0  0
  -31.4371   10.2921  -25.6778 H   0  0  0  0  0  0
  -31.2361   12.0202  -25.7565 H   0  0  0  0  0  0
  -27.0548    9.8114  -23.0358 H   0  0  0  0  0  0
  -30.2149   10.3683  -18.2357 H   0  0  0  0  0  0
  -30.4781    9.7202  -19.8416 H   0  0  0  0  0  0
  -29.8236    8.6941  -18.5924 H   0  0  0  0  0  0
  -29.5844   13.1158  -36.7749 H   0  0  0  0  0  0
  -31.3514   12.8137  -37.0247 H   0  0  0  0  0  0
  -31.0058   10.3579  -36.2876 H   0  0  0  0  0  0
  -29.2476   10.6949  -36.0239 H   0  0  0  0  0  0
  -32.3829   12.3890  -21.3836 H   0  0  0  0  0  0
  -33.3648   13.1391  -22.6004 H   0  0  0  0  0  0
  -31.3196   14.5654  -25.1404 H   0  0  0  0  0  0
  -30.0390   14.2952  -23.9961 H   0  0  0  0  0  0
  -29.1908   16.1312  -25.1126 H   0  0  0  0  0  0
  -29.9229   16.9364  -23.7674 H   0  0  0  0  0  0
  -30.5871   14.1912  -21.8310 H   0  0  0  0  0  0
  -32.1006   14.8150  -21.2541 H   0  0  0  0  0  0
  -31.4617   18.6253  -24.3933 H   0  0  0  0  0  0
  -32.6469   17.3603  -24.5583 H   0  0  0  0  0  0
  -31.8173   19.4568  -26.6214 H   0  0  0  0  0  0
  -33.3690   19.3386  -25.8374 H   0  0  0  0  0  0
  -34.9366   17.5535  -26.5364 H   0  0  0  0  0  0
  -33.7344   16.3116  -26.2017 H   0  0  0  0  0  0
  -35.3156   15.4471  -27.8561 H   0  0  0  0  0  0
  -33.7384   15.6117  -28.5988 H   0  0  0  0  0  0
  -34.4833   18.6679  -30.3747 H   0  0  0  0  0  0
  -33.2717   17.4322  -30.0827 H   0  0  0  0  0  0
  -32.7949   19.4955  -28.7657 H   0  0  0  0  0  0
  -34.3873   19.4198  -28.0198 H   0  0  0  0  0  0
  -37.6938   17.5761  -29.3973 H   0  0  0  0  0  0
  -34.1291   14.3253  -31.8675 H   0  0  0  0  0  0
  -33.6416   15.3626  -30.5349 H   0  0  0  0  0  0
  -42.7023   15.8857  -32.6404 H   0  0  0  0  0  0
  -43.4660   17.7970  -31.2978 H   0  0  0  0  0  0
  -41.8605   19.0554  -29.9110 H   0  0  0  0  0  0
  -39.5317   18.4291  -29.8503 H   0  0  0  0  0  0
  -39.4058   14.7096  -32.6778 H   0  0  0  0  0  0
  1 15  1  0  0  0
  1 31  1  0  0  0
  1 66  1  0  0  0
  2 15  1  0  0  0
  2 17  1  0  0  0
  2 18  2  0  0  0
  3 16  1  0  0  0
  3 67  1  0  0  0
  3 68  1  0  0  0
  3 69  1  0  0  0
  4 16  1  0  0  0
  4 70  1  0  0  0
  4 71  1  0  0  0
  4 72  1  0  0  0
  5 16  1  0  0  0
  5 73  1  0  0  0
  5 74  1  0  0  0
  5 75  1  0  0  0
  6  8  1  0  0  0
  6 17  1  0  0  0
  6 19  1  0  0  0
  6 76  1  0  0  0
  7 17  1  0  0  0
  7 20  1  0  0  0
  7 77  1  0  0  0
  7 78  1  0  0  0
  8 22  2  0  0  0
  8 23  1  0  0  0
  9 10  1  0  0  0
  9 25  2  0  0  0
  9 37  1  0  0  0
 10 11  2  0  0  0
 10 79  1  0  0  0
 11 26  1  0  0  0
 11 27  1  0  0  0
 12 25  1  0  0  0
 12 26  2  0  0  0
 12 80  1  0  0  0
 13 27  2  0  0  0
 13 28  1  0  0  0
 13 30  1  0  0  0
 14 28  2  0  0  0
 14 29  1  0  0  0
 14 81  1  0  0  0
 15 16  1  0  0  0
 15 82  1  0  0  0
 19 20  1  0  0  0
 19 83  1  0  0  0
 19 84  1  0  0  0
 20 21  1  0  0  0
 20 85  1  0  0  0
 21 86  1  0  0  0
 23 24  1  0  0  0
 23 87  1  0  0  0
 24 25  1  0  0  0
 24 88  1  0  0  0
 24 89  1  0  0  0
 26 90  1  0  0  0
 27 29  1  0  0  0
 30 91  1  0  0  0
 30 92  1  0  0  0
 30 93  1  0  0  0
 31 32  1  0  0  0
 31 33  2  0  0  0
 32 34  1  0  0  0
 32 35  1  0  0  0
 32 36  1  0  0  0
 35 36  1  0  0  0
 35 94  1  0  0  0
 35 95  1  0  0  0
 36 96  1  0  0  0
 36 97  1  0  0  0
 37 38  1  0  0  0
 38 43  1  0  0  0
 38 98  1  0  0  0
 38 99  1  0  0  0
 39 40  1  0  0  0
 39 43  1  0  0  0
 40 41  1  0  0  0
 40100  1  0  0  0
 40101  1  0  0  0
 41 42  1  0  0  0
 41102  1  0  0  0
 41103  1  0  0  0
 42 44  1  0  0  0
 43104  1  0  0  0
 43105  1  0  0  0
 44 45  1  0  0  0
 44106  1  0  0  0
 44107  1  0  0  0
 45 46  1  0  0  0
 45108  1  0  0  0
 45109  1  0  0  0
 46 47  1  0  0  0
 46 51  1  0  0  0
 47 48  1  0  0  0
 47110  1  0  0  0
 47111  1  0  0  0
 48 49  1  0  0  0
 48112  1  0  0  0
 48113  1  0  0  0
 49 50  1  0  0  0
 49 52  1  0  0  0
 50 51  1  0  0  0
 50114  1  0  0  0
 50115  1  0  0  0
 51116  1  0  0  0
 51117  1  0  0  0
 52 53  1  0  0  0
 52 57  2  0  0  0
 53 54  2  0  0  0
 53118  1  0  0  0
 54 55  1  0  0  0
 54 59  1  0  0  0
 55 56  2  0  0  0
 56 57  1  0  0  0
 57 58  1  0  0  0
 58119  1  0  0  0
 58120  1  0  0  0
 59 60  1  0  0  0
 59 64  2  0  0  0
 60 61  2  0  0  0
 60 65  1  0  0  0
 61 62  1  0  0  0
 61121  1  0  0  0
 62 63  2  0  0  0
 62122  1  0  0  0
 63 64  1  0  0  0
 63123  1  0  0  0
 64124  1  0  0  0
 65125  1  0  0  0
M  END
> <s_m_entry_id>
5

> <s_m_entry_name>
6hay.1_ligand

> <s_m_subgroup_title>
6HAY - minimized_split_by_structure

> <s_m_subgroupid>
6HAY - minimized_split_by_structure

> <b_m_subgroup_collapsed>
0

$$$$
