e3_ligand
                    3D
 Structure written by MMmdl.
 38 41  0  0  1  0            999 V2000
  -30.0063   13.2508  -32.9100 N   0  0  0  0  0  0
  -29.3660   12.7747  -30.6175 C   0  0  0  0  0  0
  -28.8186   15.7821  -30.1982 C   0  0  0  0  0  0
  -31.0897   15.4339  -31.1677 C   0  0  0  0  0  0
  -29.1962   16.1588  -32.6378 C   0  0  0  0  0  0
  -28.3333   11.5111  -28.6861 C   0  0  1  0  0  0
  -26.9047   12.8718  -30.0559 C   0  0  0  0  0  0
  -29.3781   11.9090  -27.6257 C   0  0  0  0  0  0
  -30.5204   11.5593  -23.2124 C   0  0  0  0  0  0
  -29.8480   11.4348  -21.9847 C   0  0  0  0  0  0
  -28.6063   10.7980  -21.9085 C   0  0  0  0  0  0
  -28.6775   10.3990  -24.2866 C   0  0  0  0  0  0
  -28.3899   10.1228  -19.3779 C   0  0  0  0  0  0
  -26.2899   10.3405  -18.8452 C   0  0  0  0  0  0
  -29.1979   13.7679  -31.7965 C   0  0  2  0  0  0
  -29.5767   15.2563  -31.4397 C   0  0  0  0  0  0
  -28.2934   12.4297  -29.8495 N   0  0  0  0  0  0
  -30.4956   12.3147  -30.4224 O   0  0  0  0  0  0
  -26.9265   11.5067  -28.0814 C   0  0  0  0  0  0
  -26.0417   11.9047  -29.2474 C   0  0  1  0  0  0
  -25.6423   10.7874  -30.0090 O   0  0  0  0  0  0
  -29.6865   13.0918  -27.4714 O   0  0  0  0  0  0
  -29.8458   10.9022  -26.8802 N   0  0  0  0  0  0
  -30.6846   11.0789  -25.6964 C   0  0  0  0  0  0
  -29.9357   11.0110  -24.3655 C   0  0  0  0  0  0
  -28.0166   10.3025  -23.0709 C   0  0  0  0  0  0
  -27.9177   10.5927  -20.6094 C   0  0  0  0  0  0
  -27.4792    9.9996  -18.4308 N   0  0  0  0  0  0
  -26.2096   10.9115  -20.4692 S   0  0  0  0  0  0
  -29.7937    9.7072  -18.9940 C   0  0  0  0  0  0
  -29.5560   12.6626  -34.0290 C   0  0  0  0  0  0
  -30.6353   12.1673  -35.0094 C   0  0  0  0  0  0
  -28.3596   12.5135  -34.2771 O   0  0  0  0  0  0
  -31.8815   12.1442  -34.5340 F   0  0  0  0  0  0
  -30.4582   12.5414  -36.4637 C   0  0  0  0  0  0
  -30.2582   11.1058  -36.0230 C   0  0  0  0  0  0
  -31.7543   12.1706  -23.3610 O   0  0  0  0  0  0
  -32.0183   12.1393  -24.2835 *   0  0  0  0  0  0
  1 15  1  0  0  0
  1 31  1  0  0  0
  2 15  1  0  0  0
  2 17  1  0  0  0
  2 18  2  0  0  0
  3 16  1  0  0  0
  4 16  1  0  0  0
  5 16  1  0  0  0
  6  8  1  0  0  0
  6 17  1  0  0  0
  6 19  1  0  0  0
  7 17  1  0  0  0
  7 20  1  0  0  0
  8 22  2  0  0  0
  8 23  1  0  0  0
  9 10  1  0  0  0
  9 25  2  0  0  0
  9 37  1  0  0  0
 10 11  2  0  0  0
 11 26  1  0  0  0
 11 27  1  0  0  0
 12 25  1  0  0  0
 12 26  2  0  0  0
 13 27  2  0  0  0
 13 28  1  0  0  0
 13 30  1  0  0  0
 14 28  2  0  0  0
 14 29  1  0  0  0
 15 16  1  0  0  0
 19 20  1  0  0  0
 20 21  1  0  0  0
 23 24  1  0  0  0
 24 25  1  0  0  0
 27 29  1  0  0  0
 31 32  1  0  0  0
 31 33  2  0  0  0
 32 34  1  0  0  0
 32 35  1  0  0  0
 32 36  1  0  0  0
 35 36  1  0  0  0
 37 38  1  0  0  0
M  ISO  1  37 101
M  END
> <s_m_entry_id>
10

> <s_m_entry_name>
6hay.1_ligand

> <s_m_subgroup_title>
6HAY - minimized_split_by_structure

> <s_m_subgroupid>
6HAY - minimized_split_by_structure

> <b_m_subgroup_collapsed>
0

$$$$
