
  -OEChem-04072317153D

 93101  0     1  0  0  0  0  0999 V2000
   21.8029   53.6575   20.3199 C   0  0  0  0  0  0  0  0  0  0  0  0
   21.4346   52.6486   20.8579 C   0  0  0  0  0  0  0  0  0  0  0  0
   26.2930   59.3302   27.3016 C   0  0  0  0  0  0  0  0  0  0  0  0
   25.9306   58.1711   27.9789 C   0  0  0  0  0  0  0  0  0  0  0  0
   33.0841   53.9035   21.9140 C   0  0  0  0  0  0  0  0  0  0  0  0
   21.6449   55.2722   18.4876 C   0  0  0  0  0  0  0  0  0  0  0  0
   23.2658   55.6171   20.2456 C   0  0  0  0  0  0  0  0  0  0  0  0
   32.1717   38.4300   16.0848 C   0  0  0  0  0  0  0  0  0  0  0  0
   32.5424   40.0254   14.3088 C   0  0  0  0  0  0  0  0  0  0  0  0
   32.3096   54.8081   22.6350 C   0  0  0  0  0  0  0  0  0  0  0  0
   32.8952   53.7658   20.5396 C   0  0  0  0  0  0  0  0  0  0  0  0
   32.0597   39.4758   17.0009 C   0  0  0  0  0  0  0  0  0  0  0  0
   32.4303   41.0713   15.2249 C   0  0  0  0  0  0  0  0  0  0  0  0
   27.1955   59.2772   26.2353 C   0  0  0  0  0  0  0  0  0  0  0  0
   22.0727   56.4438   17.8633 C   0  0  0  0  0  0  0  0  0  0  0  0
   23.6936   56.7887   19.6213 C   0  0  0  0  0  0  0  0  0  0  0  0
   26.4584   56.9310   27.6106 C   0  0  0  0  0  0  0  0  0  0  0  0
   32.2351   36.1062   11.9435 C   0  0  0  0  0  0  0  0  0  0  0  0
   22.2414   54.8588   19.6788 C   0  0  0  0  0  0  0  0  0  0  0  0
   32.4132   38.7048   14.7387 C   0  0  0  0  0  0  0  0  0  0  0  0
   31.3493   55.5794   21.9806 C   0  0  0  0  0  0  0  0  0  0  0  0
   31.9219   54.5265   19.8780 C   0  0  0  0  0  0  0  0  0  0  0  0
   31.1503   55.4509   20.5975 C   0  0  0  0  0  0  0  0  0  0  0  0
   32.1889   40.7964   16.5710 C   0  0  0  0  0  0  0  0  0  0  0  0
   27.7437   58.0369   25.8427 C   0  0  0  0  0  0  0  0  0  0  0  0
   23.0971   57.2021   18.4301 C   0  0  0  0  0  0  0  0  0  0  0  0
   27.3644   56.8851   26.5388 C   0  0  0  0  0  0  0  0  0  0  0  0
   32.5292   37.6233   13.7913 C   0  0  0  0  0  0  0  0  0  0  0  0
   28.1542   57.8451   16.0085 C   0  0  0  0  0  0  0  0  0  0  0  0
   33.4125   36.5655   13.7359 C   0  0  0  0  0  0  0  0  0  0  0  0
   27.7193   58.7112   16.9897 C   0  0  0  0  0  0  0  0  0  0  0  0
   29.1830   56.9442   17.7231 C   0  0  0  0  0  0  0  0  0  0  0  0
   28.9391   56.5546   24.7287 C   0  0  0  0  0  0  0  0  0  0  0  0
   30.5689   56.5134   22.7847 C   0  0  0  0  0  0  0  0  0  0  0  0
   27.7411   57.9819   14.5379 C   0  0  0  0  0  0  0  0  0  0  0  0
   29.8637   43.0351   17.2719 C   0  0  0  0  0  0  0  0  0  0  0  0
   28.3044   45.5990   18.0864 C   0  0  0  0  0  0  0  0  0  0  0  0
   26.5565   47.9153   19.9001 C   0  0  0  0  0  0  0  0  0  0  0  0
   31.7379   54.3943   18.3942 C   0  0  0  0  0  0  0  0  0  0  0  0
   30.1110   56.3176   19.9229 C   0  0  0  0  0  0  0  0  0  0  0  0
   27.6091   42.0872   17.1212 C   0  0  0  0  0  0  0  0  0  0  0  0
   30.3132   54.7519   17.9815 C   0  0  0  0  0  0  0  0  0  0  0  0
   26.5561   44.2185   16.8658 C   0  0  0  0  0  0  0  0  0  0  0  0
   28.4669   43.1231   17.8500 C   0  0  2  0  0  0  0  0  0  0  0  0
   26.2346   42.7431   17.0491 C   0  0  2  0  0  0  0  0  0  0  0  0
   34.5025   36.2864   14.6943 C   0  0  0  0  0  0  0  0  0  0  0  0
   26.8555   48.7329   16.2261 C   0  0  0  0  0  0  0  0  0  0  0  0
   27.6318   46.5255   15.3357 C   0  0  0  0  0  0  0  0  0  0  0  0
   29.2321   48.0177   16.5335 C   0  0  0  0  0  0  0  0  0  0  0  0
   20.9869   51.4213   21.5148 C   0  0  0  0  0  0  0  0  0  0  0  0
   32.0687   41.9221   17.5572 C   0  0  0  0  0  0  0  0  0  0  0  0
   26.8102   59.9105   16.8973 C   0  0  0  0  0  0  0  0  0  0  0  0
   27.0083   48.8309   21.0271 C   0  0  0  0  0  0  0  0  0  0  0  0
   25.3437   59.4951   16.7775 C   0  0  0  0  0  0  0  0  0  0  0  0
   27.5082   50.1795   20.5324 C   0  0  0  0  0  0  0  0  0  0  0  0
   24.8802   58.7159   18.0005 C   0  0  0  0  0  0  0  0  0  0  0  0
   20.0856   49.2838   21.1380 C   0  0  0  0  0  0  0  0  0  0  0  0
   19.5912   48.3474   20.0524 C   0  0  0  0  0  0  0  0  0  0  0  0
   26.8719   52.1264   19.3802 C   0  0  0  0  0  0  0  0  0  0  0  0
   25.7145   52.7878   18.6572 C   0  0  0  0  0  0  0  0  0  0  0  0
   20.2425   47.2181   18.0971 C   0  0  0  0  0  0  0  0  0  0  0  0
   21.4048   47.0051   17.1465 C   0  0  0  0  0  0  0  0  0  0  0  0
   24.2442   52.5471   16.8398 C   0  0  0  0  0  0  0  0  0  0  0  0
   23.8953   51.6493   15.6684 C   0  0  0  0  0  0  0  0  0  0  0  0
   22.8703   48.1155   15.6829 C   0  0  0  0  0  0  0  0  0  0  0  0
   23.2087   49.4745   15.1012 C   0  0  0  0  0  0  0  0  0  0  0  0
   27.4395   46.8109   17.8482 C   0  0  2  0  0  0  0  0  0  0  0  0
   27.7695   47.5231   16.5055 C   0  0  0  0  0  0  0  0  0  0  0  0
   33.2451   35.6943   12.6772 N   0  0  0  0  0  0  0  0  0  0  0  0
   28.6461   57.8315   24.8092 N   0  0  0  0  0  0  0  0  0  0  0  0
   28.9939   56.8314   16.4271 N   0  0  0  0  0  0  0  0  0  0  0  0
   29.9727   56.0921   18.4715 N   0  0  1  0  0  0  0  0  0  0  0  0
   27.8135   44.4027   17.5887 N   0  0  0  0  0  0  0  0  0  0  0  0
   29.8168   55.9247   23.8106 N   0  0  0  0  0  0  0  0  0  0  0  0
   30.6960   42.1594   17.9424 N   0  0  0  0  0  0  0  0  0  0  0  0
   27.5920   47.6613   19.0243 N   0  0  0  0  0  0  0  0  0  0  0  0
   28.2101   57.1238   13.7444 O   0  5  0  0  0  0  0  0  0  0  0  0
   30.5586   57.7257   22.5402 O   0  0  0  0  0  0  0  0  0  0  0  0
   26.9717   58.9397   14.2612 O   0  0  0  0  0  0  0  0  0  0  0  0
   30.1559   43.7111   16.2924 O   0  0  0  0  0  0  0  0  0  0  0  0
   29.3725   45.7086   18.6914 O   0  0  0  0  0  0  0  0  0  0  0  0
   25.4140   47.4749   19.8071 O   0  0  0  0  0  0  0  0  0  0  0  0
   25.5419   42.5687   18.2805 O   0  0  0  0  0  0  0  0  0  0  0  0
   23.5140   58.3457   17.8211 O   0  0  0  0  0  0  0  0  0  0  0  0
   20.5312   50.4946   20.5391 O   0  0  0  0  0  0  0  0  0  0  0  0
   26.4529   50.8571   19.8623 O   0  0  0  0  0  0  0  0  0  0  0  0
   20.6510   48.0941   19.1407 O   0  0  0  0  0  0  0  0  0  0  0  0
   25.3289   51.9739   17.5562 O   0  0  0  0  0  0  0  0  0  0  0  0
   21.7803   48.2554   16.5859 O   0  0  0  0  0  0  0  0  0  0  0  0
   23.5462   50.3606   16.1592 O   0  0  0  0  0  0  0  0  0  0  0  0
   31.4417   37.5346   12.4681 S   0  0  0  0  0  0  0  0  0  0  0  0
   28.1748   55.5234   25.8593 S   0  0  0  0  0  0  0  0  0  0  0  0
   28.3809   58.2461   18.5021 S   0  0  0  0  0  0  0  0  0  0  0  0
  1  2  3  0  0  0  0
  1 19  1  0  0  0  0
  2 50  1  0  0  0  0
  3  4  1  0  0  0  0
  3 14  2  0  0  0  0
  4 17  2  0  0  0  0
  5 10  1  0  0  0  0
  5 11  2  0  0  0  0
  6 15  2  0  0  0  0
  6 19  1  0  0  0  0
  7 16  1  0  0  0  0
  7 19  2  0  0  0  0
  8 12  2  0  0  0  0
  8 20  1  0  0  0  0
  9 13  1  0  0  0  0
  9 20  2  0  0  0  0
 10 21  2  0  0  0  0
 11 22  1  0  0  0  0
 12 24  1  0  0  0  0
 13 24  2  0  0  0  0
 14 25  1  0  0  0  0
 15 26  1  0  0  0  0
 16 26  2  0  0  0  0
 17 27  1  0  0  0  0
 18 69  2  0  0  0  0
 18 91  1  0  0  0  0
 20 28  1  0  0  0  0
 21 23  1  0  0  0  0
 21 34  1  0  0  0  0
 22 23  2  0  0  0  0
 22 39  1  0  0  0  0
 23 40  1  0  0  0  0
 24 51  1  0  0  0  0
 25 27  2  0  0  0  0
 25 70  1  0  0  0  0
 26 84  1  0  0  0  0
 27 92  1  0  0  0  0
 28 30  2  0  0  0  0
 28 91  1  0  0  0  0
 29 31  2  0  0  0  0
 29 35  1  0  0  0  0
 29 71  1  0  0  0  0
 30 46  1  0  0  0  0
 30 69  1  0  0  0  0
 31 52  1  0  0  0  0
 31 93  1  0  0  0  0
 32 71  2  0  0  0  0
 32 72  1  0  0  0  0
 32 93  1  0  0  0  0
 33 70  2  0  0  0  0
 33 74  1  0  0  0  0
 33 92  1  0  0  0  0
 34 74  1  0  0  0  0
 34 78  2  0  0  0  0
 35 77  1  0  0  0  0
 35 79  2  0  0  0  0
 36 44  1  0  0  0  0
 36 75  1  0  0  0  0
 36 80  2  0  0  0  0
 37 67  1  0  0  0  0
 37 73  1  0  0  0  0
 37 81  2  0  0  0  0
 38 53  1  0  0  0  0
 38 76  1  0  0  0  0
 38 82  2  0  0  0  0
 39 42  1  0  0  0  0
 40 72  1  0  0  0  0
 41 44  1  0  0  0  0
 41 45  1  0  0  0  0
 42 72  1  0  0  0  0
 43 45  1  0  0  0  0
 43 73  1  0  0  0  0
 44 73  1  0  0  0  0
 45 83  1  0  0  0  0
 47 68  1  0  0  0  0
 48 68  1  0  0  0  0
 49 68  1  0  0  0  0
 50 85  1  0  0  0  0
 51 75  1  0  0  0  0
 52 54  1  0  0  0  0
 53 55  1  0  0  0  0
 54 56  1  0  0  0  0
 55 86  1  0  0  0  0
 56 84  1  0  0  0  0
 57 58  1  0  0  0  0
 57 85  1  0  0  0  0
 58 87  1  0  0  0  0
 59 60  1  0  0  0  0
 59 86  1  0  0  0  0
 60 88  1  0  0  0  0
 61 62  1  0  0  0  0
 61 87  1  0  0  0  0
 62 89  1  0  0  0  0
 63 64  1  0  0  0  0
 63 88  1  0  0  0  0
 64 90  1  0  0  0  0
 65 66  1  0  0  0  0
 65 89  1  0  0  0  0
 66 90  1  0  0  0  0
 67 68  1  0  0  0  0
 67 76  1  0  0  0  0
M  CHG  1  77  -1
M  ISO  4   2 100  38 101  50 101  53 100
M  END
> <Batch ID>
0000

> <Smiles>
Cc1ncsc1-c1ccc(CNC(=O)[C@@H]2C[C@@H](O)CN2C(=O)[C@@H](N[101C](=O)[100CH2]COCCOCCOCCOCCOCCO[101CH2][100C]#Cc2ccc(OCCCc3sc(N4CCc5cccc(C(=O)Nc6nc7ccccc7s6)c5C4)nc3C(=O)[O-])cc2)C(C)(C)C)cc1

> <Shape>
0.242

> <Color>
0.215

> <Negative vol penalty>
0.000

$$$$
