0:0:0
     RDKit          3D

 98106  0  0  1  0  0  0  0  0999 V2000
  -27.4700  -21.6430   20.7070 C   0  0  0  0  0  3  0  0  0  0  0  0
  -27.4060  -22.9850   21.1490 C   0  0  0  0  0  3  0  0  0  0  0  0
  -29.8780  -21.6750   20.9480 C   0  0  0  0  0  3  0  0  0  0  0  0
  -28.7080  -20.9580   20.5970 C   0  0  0  0  0  0  0  0  0  0  0  0
  -28.5750  -23.6920   21.5050 C   0  0  0  0  0  0  0  0  0  0  0  0
  -29.8180  -23.0150   21.4020 C   0  0  0  0  0  0  0  0  0  0  0  0
  -30.9720  -23.6440   21.7710 O   0  0  0  0  0  0  0  0  0  0  0  0
  -31.7450  -23.0970   21.6720 H   0  0  0  0  0  0  0  0  0  0  0  0
  -28.4570  -25.1010   22.1200 C   0  0  0  0  0  2  0  0  0  0  0  0
  -29.0640  -26.3070   21.3500 C   0  0  0  0  0  2  0  0  0  0  0  0
  -28.3860  -26.6580   20.1400 O   0  0  0  0  0  0  0  0  0  0  0  0
  -24.5940  -31.9200   23.2450 C   0  0  0  0  0  0  0  0  0  0  0  0
  -27.2520  -27.4410   20.2230 C   0  0  0  0  0  0  0  0  0  0  0  0
  -23.3950  -30.4990   21.6160 C   0  0  0  0  0  3  0  0  0  0  0  0
  -24.8580  -28.9500   20.2090 C   0  0  0  0  0  0  0  0  0  0  0  0
  -25.9240  -30.8520   21.4300 C   0  0  0  0  0  2  0  0  0  0  0  0
  -26.0130  -29.4730   20.8080 C   0  0  0  0  0  0  0  0  0  0  0  0
  -27.2130  -28.7240   20.8220 C   0  0  0  0  0  3  0  0  0  0  0  0
  -26.0880  -26.9400   19.6100 C   0  0  0  0  0  3  0  0  0  0  0  0
  -24.8890  -27.6790   19.6100 C   0  0  0  0  0  3  0  0  0  0  0  0
  -23.6130  -29.8080   20.2430 C   0  0  0  0  0  2  0  0  0  0  0  0
  -24.6560  -31.1020   22.1570 N   0  0  0  0  0  0  0  0  0  0  0  0
  -23.5070  -32.2160   23.7580 O   0  0  0  0  0  0  0  0  0  0  0  0
  -22.7410  -29.4830   22.5810 C   0  0  0  0  0  0  0  0  0  0  0  0
  -21.4180  -29.2970   22.4480 N   0  0  0  0  0  0  0  0  0  0  0  0
  -23.4230  -28.8640   23.4030 O   0  0  0  0  0  0  0  0  0  0  0  0
  -20.9290  -29.8450   21.7550 H   0  0  0  0  0  0  0  0  0  0  0  0
  -18.0440  -28.1010   22.9400 C   0  0  0  0  0  0  0  0  0  0  0  0
  -20.6000  -28.3620   23.2210 C   0  0  0  0  0  3  0  0  0  0  0  0
  -20.7060  -26.9290   22.6520 C   0  0  0  0  0  2  0  0  0  0  0  0
  -19.6100  -26.5990   21.6360 C   0  0  0  0  0  2  0  0  0  0  0  0
  -18.2250  -26.7480   22.2720 C   0  0  0  0  0  2  0  0  0  0  0  0
  -19.1600  -28.8660   23.3710 C   0  0  0  0  0  0  0  0  0  0  0  0
  -18.9400  -30.1310   23.9550 C   0  0  0  0  0  3  0  0  0  0  0  0
  -17.6340  -30.6340   24.1110 C   0  0  0  0  0  3  0  0  0  0  0  0
  -16.5330  -29.8660   23.6980 C   0  0  0  0  0  3  0  0  0  0  0  0
  -16.7380  -28.6010   23.1190 C   0  0  0  0  0  3  0  0  0  0  0  0
  -25.8790  -32.5470   23.8730 C   0  0  0  0  0  3  0  0  0  0  0  0
  -26.3940  -31.7790   25.1520 C   0  0  1  0  0  0  0  0  0  0  0  0
  -25.2970  -31.5490   26.2160 C   0  0  0  0  0  1  0  0  0  0  0  0
  -26.9750  -30.3990   24.7650 C   0  0  0  0  0  1  0  0  0  0  0  0
  -27.5450  -32.5750   25.8140 C   0  0  0  0  0  1  0  0  0  0  0  0
  -25.5730  -33.9470   24.1960 N   0  0  0  0  0  0  0  0  0  0  0  0
  -25.9100  -34.9920   23.4310 C   0  0  0  0  0  0  0  0  0  0  0  0
  -26.5830  -34.8820   22.4020 O   0  0  0  0  0  0  0  0  0  0  0  0
  -24.9750  -34.1090   24.9930 H   0  0  0  0  0  0  0  0  0  0  0  0
  -24.1880  -36.7850   23.0500 C   0  0  0  0  0  1  0  0  0  0  0  0
  -25.4200  -36.3840   23.8770 C   0  0  0  0  0  3  0  0  0  0  0  0
  -27.5510  -37.2650   24.7220 C   0  0  0  0  0  1  0  0  0  0  0  0
  -26.4560  -37.4340   23.7690 N   0  0  0  0  0  0  0  0  0  0  0  0
  -26.0510  -38.3550   23.9130 H   0  0  0  0  0  0  0  0  0  0  0  0
  -28.8120  -19.5080   20.0540 C   0  0  0  0  0  3  0  0  0  0  0  0
  -29.2300  -18.5020   21.0600 N   0  0  0  0  0  4  0  0  0  0  0  0
  -29.0450  -18.8300   21.9920 H   0  0  0  0  0  0  0  0  0  0  0  0
  -28.5930  -17.7450   20.8470 H   0  0  0  0  0  0  0  0  0  0  0  0
  -30.5990  -17.9450   20.9120 C   0  0  0  0  0  2  0  0  0  0  0  0
  -30.8640  -16.6810   21.7780 C   0  0  0  0  0  2  0  0  0  0  0  0
  -30.8310  -14.5010   20.5230 C   0  0  0  0  0  0  0  0  0  0  0  0
  -30.5080  -12.3810   19.2900 C   0  0  0  0  0  2  0  0  0  0  0  0
  -29.5780  -12.6000   18.0800 C   0  0  0  0  0  2  0  0  0  0  0  0
  -28.1010  -12.4620   18.4960 C   0  0  0  0  0  2  0  0  0  0  0  0
  -27.7570  -13.2930   19.7610 C   0  0  0  0  0  3  0  0  0  0  0  0
  -28.7960  -13.0470   20.8770 C   0  0  0  0  0  2  0  0  0  0  0  0
  -30.1310  -13.3500   20.3330 N   0  0  0  0  0  0  0  0  0  0  0  0
  -31.9230  -14.7180   19.9910 O   0  0  0  0  0  0  0  0  0  0  0  0
  -30.2390  -15.4330   21.2960 N   0  0  0  0  0  0  0  0  0  0  0  0
  -29.3410  -15.1810   21.6820 H   0  0  0  0  0  0  0  0  0  0  0  0
  -25.3500  -13.9140   20.4230 C   0  0  0  0  0  0  0  0  0  0  0  0
  -24.2760  -13.1490   20.7890 C   0  0  0  0  0  0  0  0  0  0  0  0
  -24.7340  -11.7950   20.7840 C   0  0  0  0  0  0  0  0  0  0  0  0
  -26.3970  -13.0280   20.2220 N   0  0  0  0  0  0  0  0  0  0  0  0
  -26.0290  -11.7490   20.4950 N   0  0  0  0  0  0  0  0  0  0  0  0
  -24.0030  -10.5360   20.9820 C   0  0  0  0  0  0  0  0  0  0  0  0
  -24.4220   -9.5790   21.9330 C   0  0  0  0  0  3  0  0  0  0  0  0
  -23.6920   -8.3860   22.1180 C   0  0  0  0  0  3  0  0  0  0  0  0
  -22.5280   -8.1400   21.3510 C   0  0  0  0  0  0  0  0  0  0  0  0
  -22.1280   -9.0840   20.3890 C   0  0  0  0  0  3  0  0  0  0  0  0
  -22.8590  -10.2690   20.2040 C   0  0  0  0  0  3  0  0  0  0  0  0
  -21.7710   -6.9960   21.4430 O   0  0  0  0  0  0  0  0  0  0  0  0
  -21.7070   -6.2680   22.6030 C   0  0  0  0  0  0  0  0  0  0  0  0
  -21.2670   -6.8390   23.8180 C   0  0  0  0  0  3  0  0  0  0  0  0
  -21.1490   -6.0370   24.9700 C   0  0  0  0  0  3  0  0  0  0  0  0
  -21.4600   -4.6660   24.9100 C   0  0  0  0  0  0  0  0  0  0  0  0
  -21.8920   -4.0940   23.7000 C   0  0  0  0  0  3  0  0  0  0  0  0
  -22.0110   -4.8930   22.5490 C   0  0  0  0  0  0  0  0  0  0  0  0
  -22.4080   -4.3340   21.3810 F   0  0  0  0  0  0  0  0  0  0  0  0
  -21.3400   -3.8930   26.0150 F   0  0  0  0  0  0  0  0  0  0  0  0
  -22.8760  -13.6310   21.0340 C   0  0  0  0  0  0  0  0  0  0  0  0
  -22.1350  -12.9490   21.9010 N   0  0  0  0  0  0  0  0  0  0  0  0
  -22.4460  -14.6490   20.4930 O   0  0  0  0  0  0  0  0  0  0  0  0
  -22.4930  -12.1250   22.3610 H   0  0  0  0  0  0  0  0  0  0  0  0
  -21.1950  -13.2560   22.1090 H   0  0  0  0  0  0  0  0  0  0  0  0
  -25.5190  -15.2820   20.2250 N   0  0  0  0  0  0  0  0  0  0  0  0
  -24.7400  -15.9270   20.2910 H   0  0  0  0  0  0  0  0  0  0  0  0
  -26.3490  -15.7170   19.8330 H   0  0  0  0  0  0  0  0  0  0  0  0
  -27.5090  -18.9530   19.4340 C   0  0  0  0  0  2  0  0  0  0  0  0
  -27.6660  -17.5740   19.1050 O   0  0  0  0  0  0  0  0  0  0  0  0
  -27.9980  -17.5210   18.2120 H   0  0  0  0  0  0  0  0  0  0  0  0
  1  2  1  0
  2  5  2  0
  3  6  2  0
  4  1  2  0
  4  3  1  0
  5  9  1  0
  6  5  1  0
  6  7  1  0
  8  7  1  0
 10  9  1  0
 11 13  1  0
 11 10  1  0
 12 23  2  0
 13 18  1  0
 14 22  1  0
 14 24  1  0
 15 21  1  0
 15 17  1  0
 16 22  1  0
 17 18  2  0
 17 16  1  0
 19 20  1  0
 19 13  2  0
 20 15  2  0
 21 14  1  0
 22 12  1  0
 24 26  2  0
 25 24  1  0
 27 25  1  0
 28 37  2  0
 28 33  1  0
 29 25  1  0
 29 33  1  0
 30 29  1  0
 31 32  1  0
 31 30  1  0
 32 28  1  0
 33 34  2  0
 34 35  1  0
 36 35  2  0
 37 36  1  0
 38 12  1  0
 38 43  1  0
 38 39  1  0
 39 42  1  1
 39 40  1  0
 41 39  1  0
 43 46  1  0
 44 48  1  0
 44 43  1  0
 45 44  2  0
 48 47  1  0
 50 48  1  0
 50 51  1  0
 50 49  1  0
 52 96  1  0
 52  4  1  0
 52 53  1  0
 53 54  1  0
 55 53  1  0
 56 53  1  0
 56 57  1  0
 58 66  1  0
 59 64  1  0
 60 61  1  0
 60 59  1  0
 62 61  1  0
 62 71  1  0
 62 63  1  0
 64 58  1  0
 64 63  1  0
 65 58  2  0
 66 67  1  0
 66 57  1  0
 68 69  2  0
 69 88  1  0
 70 69  1  0
 70 73  1  0
 71 68  1  0
 71 72  1  0
 72 70  2  0
 73 74  1  0
 74 75  2  0
 76 79  1  0
 76 75  1  0
 77 76  2  0
 78 77  1  0
 78 73  2  0
 79 80  1  0
 80 81  1  0
 81 82  2  0
 83 82  1  0
 83 87  1  0
 84 83  2  0
 85 80  2  0
 85 84  1  0
 86 85  1  0
 88 89  1  0
 89 92  1  0
 89 91  1  0
 90 88  2  0
 93 94  1  0
 93 68  1  0
 95 93  1  0
 97 96  1  0
 98 97  1  0
M  ISO  4  10 101  11 101  58 100  66 100
M  END
>  <TORSDO>  (1) 
F 25

>  <SCORE>  (1) 
-13.208

>  <name>  (1) 
0

>  <ligand_id>  (1) 
0

>  <original_smiles>  (1) 
[H]Oc1c([H])c(C([H])(C([H])([H])O[H])[N+]([H])([H])C([H])([H])C([H])([H])N([H])C(=O)N2C([H])([H])C([H])([H])C([H])([H])C([H])(n3nc(-c4c([H])c([H])c(Oc5c([H])c([H])c(F)c([H])c5F)c([H])c4[H])c(C(=O)N([H])[H])c3N([H])[H])C2([H])[H])c([H])c([H])c1C([H])([H])C([H])([H])Oc1c([H])c([H])c2c(c1[H])C([H])([H])N(C(=O)C([H])(N([H])C(=O)C([H])(N([H])C([H])([H])[H])C([H])([H])[H])C(C([H])([H])[H])(C([H])([H])[H])C([H])([H])[H])C([H])(C(=O)N([H])C1([H])c3c([H])c([H])c([H])c([H])c3C([H])([H])C([H])([H])C1([H])[H])C2([H])[H]

>  <smiles>  (1) 
[H]Oc1c([H])c(C([H])(C([H])([H])O[H])[N+]([H])([H])C([H])([H])C([H])([H])N([H])C(=O)N2C([H])([H])C([H])([H])C([H])([H])C([H])(n3nc(-c4c([H])c([H])c(Oc5c([H])c([H])c(F)c([H])c5F)c([H])c4[H])c(C(=O)N([H])[H])c3N([H])[H])C2([H])[H])c([H])c([H])c1C([H])([H])C([H])([H])Oc1c([H])c([H])c2c(c1[H])C([H])([H])N(C(=O)C([H])(N([H])C(=O)C([H])(N([H])C([H])([H])[H])C([H])([H])[H])C(C([H])([H])[H])(C([H])([H])[H])C([H])([H])[H])C([H])(C(=O)N([H])C1([H])c3c([H])c([H])c([H])c([H])c3C([H])([H])C([H])([H])C1([H])[H])C2([H])[H]

$$$$
1:0:0
     RDKit          3D

 93102  0  0  1  0  0  0  0  0999 V2000
  -28.5830  -24.1170   17.4620 C   0  0  0  0  0  3  0  0  0  0  0  0
  -29.0350  -22.9970   18.1860 C   0  0  0  0  0  3  0  0  0  0  0  0
  -28.3630  -25.3480   18.1080 C   0  0  0  0  0  3  0  0  0  0  0  0
  -28.9920  -24.3250   20.2270 C   0  0  0  0  0  3  0  0  0  0  0  0
  -29.2540  -23.0810   19.5790 C   0  0  0  0  0  0  0  0  0  0  0  0
  -28.5450  -25.4700   19.5040 C   0  0  0  0  0  0  0  0  0  0  0  0
  -28.3990  -26.7060   20.1270 O   0  0  0  0  0  0  0  0  0  0  0  0
  -24.5900  -31.9000   23.2340 C   0  0  0  0  0  0  0  0  0  0  0  0
  -27.2160  -27.4360   20.1120 C   0  0  0  0  0  0  0  0  0  0  0  0
  -23.3760  -30.5020   21.5990 C   0  0  0  0  0  3  0  0  0  0  0  0
  -24.8190  -28.9680   20.1570 C   0  0  0  0  0  0  0  0  0  0  0  0
  -25.9060  -30.8460   21.3940 C   0  0  0  0  0  2  0  0  0  0  0  0
  -25.9840  -29.4790   20.7400 C   0  0  0  0  0  0  0  0  0  0  0  0
  -27.1810  -28.7220   20.7120 C   0  0  0  0  0  3  0  0  0  0  0  0
  -26.0190  -26.9380   19.5440 C   0  0  0  0  0  3  0  0  0  0  0  0
  -24.8330  -27.6980   19.5570 C   0  0  0  0  0  3  0  0  0  0  0  0
  -23.5770  -29.8310   20.2150 C   0  0  0  0  0  2  0  0  0  0  0  0
  -24.6440  -31.0930   22.1360 N   0  0  0  0  0  0  0  0  0  0  0  0
  -23.5060  -32.1950   23.7580 O   0  0  0  0  0  0  0  0  0  0  0  0
  -22.7270  -29.4750   22.5570 C   0  0  0  0  0  0  0  0  0  0  0  0
  -21.4030  -29.2870   22.4280 N   0  0  0  0  0  0  0  0  0  0  0  0
  -23.4110  -28.8530   23.3720 O   0  0  0  0  0  0  0  0  0  0  0  0
  -20.9110  -29.8420   21.7410 H   0  0  0  0  0  0  0  0  0  0  0  0
  -18.0330  -28.0730   22.9150 C   0  0  0  0  0  0  0  0  0  0  0  0
  -20.5900  -28.3420   23.1930 C   0  0  0  0  0  3  0  0  0  0  0  0
  -20.7000  -26.9130   22.6110 C   0  0  0  0  0  2  0  0  0  0  0  0
  -19.6020  -26.5900   21.5940 C   0  0  0  0  0  2  0  0  0  0  0  0
  -18.2180  -26.7260   22.2360 C   0  0  0  0  0  2  0  0  0  0  0  0
  -19.1470  -28.8380   23.3510 C   0  0  0  0  0  0  0  0  0  0  0  0
  -18.9220  -30.0990   23.9470 C   0  0  0  0  0  3  0  0  0  0  0  0
  -17.6150  -30.5940   24.1110 C   0  0  0  0  0  3  0  0  0  0  0  0
  -16.5150  -29.8250   23.6920 C   0  0  0  0  0  3  0  0  0  0  0  0
  -16.7250  -28.5670   23.1000 C   0  0  0  0  0  3  0  0  0  0  0  0
  -25.8800  -32.5160   23.8620 C   0  0  0  0  0  3  0  0  0  0  0  0
  -26.3980  -31.7360   25.1320 C   0  0  1  0  0  0  0  0  0  0  0  0
  -25.3070  -31.4930   26.1990 C   0  0  0  0  0  1  0  0  0  0  0  0
  -26.9790  -30.3600   24.7300 C   0  0  0  0  0  1  0  0  0  0  0  0
  -27.5530  -32.5240   25.7950 C   0  0  0  0  0  1  0  0  0  0  0  0
  -25.5800  -33.9140   24.2000 N   0  0  0  0  0  0  0  0  0  0  0  0
  -25.9080  -34.9670   23.4410 C   0  0  0  0  0  0  0  0  0  0  0  0
  -26.5700  -34.8640   22.4050 O   0  0  0  0  0  0  0  0  0  0  0  0
  -24.9880  -34.0670   25.0050 H   0  0  0  0  0  0  0  0  0  0  0  0
  -24.1850  -36.7670   23.0980 C   0  0  0  0  0  1  0  0  0  0  0  0
  -25.4260  -36.3540   23.9060 C   0  0  0  0  0  3  0  0  0  0  0  0
  -27.5630  -37.2300   24.7390 C   0  0  0  0  0  1  0  0  0  0  0  0
  -26.4610  -37.4040   23.7960 N   0  0  0  0  0  0  0  0  0  0  0  0
  -26.0580  -38.3240   23.9480 H   0  0  0  0  0  0  0  0  0  0  0  0
  -29.8910  -21.8850   20.3240 C   0  0  0  0  0  2  0  0  0  0  0  0
  -29.2570  -20.4660   20.1000 C   0  0  0  0  0  2  0  0  0  0  0  0
  -31.2880  -17.5770   21.6150 C   0  0  0  0  0  2  0  0  0  0  0  0
  -31.0570  -19.0830   21.3990 C   0  0  0  0  0  2  0  0  0  0  0  0
  -29.4470  -17.8540   20.0540 C   0  0  0  0  0  2  0  0  0  0  0  0
  -29.9350  -16.9760   21.2350 C   0  0  0  0  0  3  0  0  0  0  0  0
  -30.2210  -19.2170   20.1040 C   0  0  1  0  0  0  0  0  0  0  0  0
  -31.1660  -19.2950   18.8840 C   0  0  0  0  0  1  0  0  0  0  0  0
  -30.6130  -14.5550   20.4860 C   0  0  0  0  0  0  0  0  0  0  0  0
  -30.3800  -12.3910   19.3000 C   0  0  0  0  0  2  0  0  0  0  0  0
  -29.4280  -12.5890   18.0990 C   0  0  0  0  0  2  0  0  0  0  0  0
  -27.9520  -12.4400   18.5240 C   0  0  0  0  0  2  0  0  0  0  0  0
  -27.6110  -13.2580   19.7970 C   0  0  0  0  0  3  0  0  0  0  0  0
  -28.6640  -13.0070   20.8990 C   0  0  0  0  0  2  0  0  0  0  0  0
  -29.9870  -13.3510   20.3440 N   0  0  0  0  0  0  0  0  0  0  0  0
  -31.7300  -14.7870   20.0160 O   0  0  0  0  0  0  0  0  0  0  0  0
  -29.8380  -15.5060   21.0550 N   0  0  0  0  0  0  0  0  0  0  0  0
  -28.9620  -15.1240   21.3800 H   0  0  0  0  0  0  0  0  0  0  0  0
  -25.2060  -13.8680   20.4850 C   0  0  0  0  0  0  0  0  0  0  0  0
  -24.1360  -13.0950   20.8500 C   0  0  0  0  0  0  0  0  0  0  0  0
  -24.5990  -11.7440   20.8260 C   0  0  0  0  0  0  0  0  0  0  0  0
  -26.2540  -12.9860   20.2650 N   0  0  0  0  0  0  0  0  0  0  0  0
  -25.8900  -11.7040   20.5250 N   0  0  0  0  0  0  0  0  0  0  0  0
  -23.8730  -10.4810   21.0150 C   0  0  0  0  0  0  0  0  0  0  0  0
  -24.2940   -9.5240   21.9650 C   0  0  0  0  0  3  0  0  0  0  0  0
  -23.5690   -8.3260   22.1410 C   0  0  0  0  0  3  0  0  0  0  0  0
  -22.4130   -8.0750   21.3670 C   0  0  0  0  0  0  0  0  0  0  0  0
  -22.0120   -9.0210   20.4070 C   0  0  0  0  0  3  0  0  0  0  0  0
  -22.7360  -10.2110   20.2280 C   0  0  0  0  0  3  0  0  0  0  0  0
  -21.6610   -6.9260   21.4510 O   0  0  0  0  0  0  0  0  0  0  0  0
  -21.5860   -6.2010   22.6130 C   0  0  0  0  0  0  0  0  0  0  0  0
  -21.1010   -6.7640   23.8130 C   0  0  0  0  0  3  0  0  0  0  0  0
  -20.9750   -5.9620   24.9660 C   0  0  0  0  0  3  0  0  0  0  0  0
  -21.3230   -4.5990   24.9180 C   0  0  0  0  0  0  0  0  0  0  0  0
  -21.8000   -4.0350   23.7210 C   0  0  0  0  0  3  0  0  0  0  0  0
  -21.9280   -4.8340   22.5710 C   0  0  0  0  0  0  0  0  0  0  0  0
  -22.3680   -4.2810   21.4150 F   0  0  0  0  0  0  0  0  0  0  0  0
  -21.1940   -3.8270   26.0230 F   0  0  0  0  0  0  0  0  0  0  0  0
  -22.7360  -13.5700   21.1130 C   0  0  0  0  0  0  0  0  0  0  0  0
  -22.0050  -12.8730   21.9760 N   0  0  0  0  0  0  0  0  0  0  0  0
  -22.2980  -14.5950   20.5910 O   0  0  0  0  0  0  0  0  0  0  0  0
  -22.3710  -12.0440   22.4200 H   0  0  0  0  0  0  0  0  0  0  0  0
  -21.0650  -13.1720   22.1950 H   0  0  0  0  0  0  0  0  0  0  0  0
  -25.3710  -15.2370   20.3030 N   0  0  0  0  0  0  0  0  0  0  0  0
  -24.6040  -15.8940   20.4020 H   0  0  0  0  0  0  0  0  0  0  0  0
  -26.2220  -15.6710   19.9680 H   0  0  0  0  0  0  0  0  0  0  0  0
  1  3  2  0
  1  2  1  0
  2  5  2  0
  3  6  1  0
  5  4  1  0
  5 48  1  0
  6  7  1  0
  6  4  2  0
  8 19  2  0
  9  7  1  0
  9 14  1  0
 10 18  1  0
 10 20  1  0
 11 17  1  0
 11 13  1  0
 12 18  1  0
 13 12  1  0
 14 13  2  0
 15 16  1  0
 15  9  2  0
 16 11  2  0
 17 10  1  0
 18  8  1  0
 20 22  2  0
 21 20  1  0
 23 21  1  0
 24 33  2  0
 24 29  1  0
 25 21  1  0
 25 29  1  0
 26 25  1  0
 27 28  1  0
 27 26  1  0
 28 24  1  0
 29 30  2  0
 30 31  1  0
 32 31  2  0
 33 32  1  0
 34  8  1  0
 34 39  1  0
 34 35  1  0
 35 38  1  1
 35 36  1  0
 37 35  1  0
 39 42  1  0
 40 44  1  0
 40 39  1  0
 41 40  2  0
 44 43  1  0
 46 44  1  0
 46 47  1  0
 46 45  1  0
 49 54  1  0
 49 48  1  0
 51 50  1  0
 52 54  1  0
 52 53  1  0
 53 64  1  0
 53 50  1  0
 54 55  1  6
 54 51  1  0
 56 64  1  0
 57 62  1  0
 58 59  1  0
 58 57  1  0
 60 59  1  0
 60 69  1  0
 60 61  1  0
 62 56  1  0
 62 61  1  0
 63 56  2  0
 64 65  1  0
 66 67  2  0
 67 86  1  0
 68 67  1  0
 68 71  1  0
 69 66  1  0
 69 70  1  0
 70 68  2  0
 71 72  1  0
 72 73  2  0
 74 77  1  0
 74 73  1  0
 75 74  2  0
 76 75  1  0
 76 71  2  0
 77 78  1  0
 78 79  1  0
 79 80  2  0
 81 80  1  0
 81 85  1  0
 82 81  2  0
 83 78  2  0
 83 82  1  0
 84 83  1  0
 86 87  1  0
 87 90  1  0
 87 89  1  0
 88 86  2  0
 91 92  1  0
 91 66  1  0
 93 91  1  0
M  ISO  4   6 101   7 101  56 100  64 100
M  END
>  <TORSDO>  (2) 
F 19

>  <SCORE>  (2) 
-14.500

>  <name>  (2) 
1

>  <ligand_id>  (2) 
1

>  <original_smiles>  (2) 
[H]c1c([H])c([H])c2c(c1[H])C([H])([H])C([H])([H])C([H])([H])C2([H])N([H])C(=O)C1([H])N(C(=O)C([H])(N([H])C(=O)C([H])(N([H])C([H])([H])[H])C([H])([H])[H])C(C([H])([H])[H])(C([H])([H])[H])C([H])([H])[H])C([H])([H])c2c([H])c(Oc3c([H])c([H])c([H])c(C([H])([H])C([H])([H])C4(C([H])([H])[H])C([H])([H])C([H])([H])C([H])(N([H])C(=O)N5C([H])([H])C([H])([H])C([H])([H])C([H])(n6nc(-c7c([H])c([H])c(Oc8c([H])c([H])c(F)c([H])c8F)c([H])c7[H])c(C(=O)N([H])[H])c6N([H])[H])C5([H])[H])C4([H])[H])c3[H])c([H])c([H])c2C1([H])[H]

>  <smiles>  (2) 
[H]c1c([H])c([H])c2c(c1[H])C([H])([H])C([H])([H])C([H])([H])C2([H])N([H])C(=O)C1([H])N(C(=O)C([H])(N([H])C(=O)C([H])(N([H])C([H])([H])[H])C([H])([H])[H])C(C([H])([H])[H])(C([H])([H])[H])C([H])([H])[H])C([H])([H])c2c([H])c(Oc3c([H])c([H])c([H])c(C([H])([H])C([H])([H])C4(C([H])([H])[H])C([H])([H])C([H])([H])C([H])(N([H])C(=O)N5C([H])([H])C([H])([H])C([H])([H])C([H])(n6nc(-c7c([H])c([H])c(Oc8c([H])c([H])c(F)c([H])c8F)c([H])c7[H])c(C(=O)N([H])[H])c6N([H])[H])C5([H])[H])C4([H])[H])c3[H])c([H])c([H])c2C1([H])[H]

$$$$
2:0:0
     RDKit          3D

 98107  0  0  1  0  0  0  0  0999 V2000
  -30.8050  -22.5540   19.0290 C   0  0  0  0  0  2  0  0  0  0  0  0
  -29.5540  -22.5710   21.2160 C   0  0  0  0  0  2  0  0  0  0  0  0
  -31.2370  -24.0100   19.2870 C   0  0  0  0  0  2  0  0  0  0  0  0
  -30.0750  -24.0030   21.4590 C   0  0  0  0  0  2  0  0  0  0  0  0
  -30.5060  -21.7580   20.3210 C   0  0  0  0  0  3  0  0  0  0  0  0
  -30.2980  -24.7350   20.1840 N   0  0  1  0  0  4  0  0  0  0  0  0
  -29.4060  -24.7780   19.7080 H   0  0  0  0  0  0  0  0  0  0  0  0
  -28.9640  -20.1700   19.0540 C   0  0  0  0  0  3  0  0  0  0  0  0
  -28.4870  -18.8870   18.7590 C   0  0  0  0  0  3  0  0  0  0  0  0
  -30.4410  -19.2200   20.7340 C   0  0  0  0  0  3  0  0  0  0  0  0
  -29.9630  -20.3530   20.0300 C   0  0  0  0  0  0  0  0  0  0  0  0
  -29.9490  -17.9100   20.4790 C   0  0  0  0  0  0  0  0  0  0  0  0
  -28.9640  -17.7610   19.4550 C   0  0  0  0  0  0  0  0  0  0  0  0
  -28.4200  -16.5450   19.0660 N   0  0  0  0  0  0  0  0  0  0  0  0
  -27.9960  -16.5080   18.1450 H   0  0  0  0  0  0  0  0  0  0  0  0
  -28.9660  -15.7220   19.2810 H   0  0  0  0  0  0  0  0  0  0  0  0
  -30.5230  -16.7730   21.3610 C   0  0  0  0  0  2  0  0  0  0  0  0
  -30.7040  -14.4210   20.4860 C   0  0  0  0  0  0  0  0  0  0  0  0
  -30.3610  -12.3010   19.2710 C   0  0  0  0  0  2  0  0  0  0  0  0
  -29.4060  -12.5470   18.0870 C   0  0  0  0  0  2  0  0  0  0  0  0
  -27.9360  -12.4050   18.5300 C   0  0  0  0  0  2  0  0  0  0  0  0
  -27.6180  -13.2000   19.8230 C   0  0  0  0  0  3  0  0  0  0  0  0
  -28.6890  -12.9560   20.9100 C   0  0  0  0  0  2  0  0  0  0  0  0
  -30.0100  -13.2630   20.3270 N   0  0  0  0  0  0  0  0  0  0  0  0
  -31.7990  -14.6290   19.9560 O   0  0  0  0  0  0  0  0  0  0  0  0
  -30.0640  -15.3900   21.1570 N   0  0  0  0  0  0  0  0  0  0  0  0
  -29.1630  -15.1530   21.5420 H   0  0  0  0  0  0  0  0  0  0  0  0
  -25.2220  -13.8280   20.5180 C   0  0  0  0  0  0  0  0  0  0  0  0
  -24.1510  -13.0610   20.8940 C   0  0  0  0  0  0  0  0  0  0  0  0
  -24.6100  -11.7080   20.8650 C   0  0  0  0  0  0  0  0  0  0  0  0
  -26.2660  -12.9400   20.3020 N   0  0  0  0  0  0  0  0  0  0  0  0
  -25.8990  -11.6610   20.5580 N   0  0  0  0  0  0  0  0  0  0  0  0
  -23.8840  -10.4480   21.0600 C   0  0  0  0  0  0  0  0  0  0  0  0
  -24.3300   -9.4740   21.9820 C   0  0  0  0  0  3  0  0  0  0  0  0
  -23.6030   -8.2780   22.1620 C   0  0  0  0  0  3  0  0  0  0  0  0
  -22.4200   -8.0450   21.4230 C   0  0  0  0  0  0  0  0  0  0  0  0
  -21.9950   -9.0080   20.4910 C   0  0  0  0  0  3  0  0  0  0  0  0
  -22.7200  -10.1950   20.3070 C   0  0  0  0  0  3  0  0  0  0  0  0
  -21.6660   -6.9010   21.5120 O   0  0  0  0  0  0  0  0  0  0  0  0
  -21.6410   -6.1440   22.6570 C   0  0  0  0  0  0  0  0  0  0  0  0
  -21.2420   -6.6850   23.8990 C   0  0  0  0  0  3  0  0  0  0  0  0
  -21.1610   -5.8550   25.0360 C   0  0  0  0  0  3  0  0  0  0  0  0
  -21.4740   -4.4860   24.9340 C   0  0  0  0  0  0  0  0  0  0  0  0
  -21.8670   -3.9460   23.6970 C   0  0  0  0  0  3  0  0  0  0  0  0
  -21.9460   -4.7720   22.5630 C   0  0  0  0  0  0  0  0  0  0  0  0
  -22.3050   -4.2420   21.3670 F   0  0  0  0  0  0  0  0  0  0  0  0
  -21.3950   -3.6860   26.0230 F   0  0  0  0  0  0  0  0  0  0  0  0
  -22.7550  -13.5410   21.1710 C   0  0  0  0  0  0  0  0  0  0  0  0
  -22.0320  -12.8480   22.0420 N   0  0  0  0  0  0  0  0  0  0  0  0
  -22.3120  -14.5670   20.6550 O   0  0  0  0  0  0  0  0  0  0  0  0
  -22.3970  -12.0140   22.4790 H   0  0  0  0  0  0  0  0  0  0  0  0
  -21.1000  -13.1550   22.2830 H   0  0  0  0  0  0  0  0  0  0  0  0
  -25.3890  -15.1970   20.3260 N   0  0  0  0  0  0  0  0  0  0  0  0
  -24.6170  -15.8500   20.3950 H   0  0  0  0  0  0  0  0  0  0  0  0
  -26.2430  -15.6300   19.9800 H   0  0  0  0  0  0  0  0  0  0  0  0
  -30.6930  -26.1580   20.3750 C   0  0  0  0  0  2  0  0  0  0  0  0
  -29.5280  -27.0440   20.8430 C   0  0  0  0  0  2  0  0  0  0  0  0
  -28.3890  -26.6960   20.0630 O   0  0  0  0  0  0  0  0  0  0  0  0
  -24.5860  -31.8810   23.2340 C   0  0  0  0  0  0  0  0  0  0  0  0
  -27.2490  -27.4610   20.1610 C   0  0  0  0  0  0  0  0  0  0  0  0
  -23.3750  -30.4710   21.5960 C   0  0  0  0  0  3  0  0  0  0  0  0
  -24.8300  -28.9270   20.1810 C   0  0  0  0  0  0  0  0  0  0  0  0
  -25.8950  -30.8340   21.4000 C   0  0  0  0  0  2  0  0  0  0  0  0
  -25.9800  -29.4610   20.7720 C   0  0  0  0  0  0  0  0  0  0  0  0
  -27.1870  -28.7350   20.7760 C   0  0  0  0  0  3  0  0  0  0  0  0
  -26.0800  -26.9330   19.5730 C   0  0  0  0  0  3  0  0  0  0  0  0
  -24.8710  -27.6550   19.5840 C   0  0  0  0  0  3  0  0  0  0  0  0
  -23.5840  -29.7820   20.2200 C   0  0  0  0  0  2  0  0  0  0  0  0
  -24.6360  -31.0740   22.1370 N   0  0  0  0  0  0  0  0  0  0  0  0
  -23.5050  -32.1730   23.7580 O   0  0  0  0  0  0  0  0  0  0  0  0
  -22.7260  -29.4540   22.5610 C   0  0  0  0  0  0  0  0  0  0  0  0
  -21.4010  -29.2740   22.4340 N   0  0  0  0  0  0  0  0  0  0  0  0
  -23.4100  -28.8270   23.3730 O   0  0  0  0  0  0  0  0  0  0  0  0
  -20.9120  -29.8340   21.7510 H   0  0  0  0  0  0  0  0  0  0  0  0
  -18.0230  -28.1040   22.9410 C   0  0  0  0  0  0  0  0  0  0  0  0
  -20.5820  -28.3410   23.2070 C   0  0  0  0  0  3  0  0  0  0  0  0
  -20.6720  -26.9100   22.6270 C   0  0  0  0  0  2  0  0  0  0  0  0
  -19.5660  -26.5980   21.6150 C   0  0  0  0  0  2  0  0  0  0  0  0
  -18.1860  -26.7540   22.2620 C   0  0  0  0  0  2  0  0  0  0  0  0
  -19.1480  -28.8550   23.3700 C   0  0  0  0  0  0  0  0  0  0  0  0
  -18.9440  -30.1190   23.9650 C   0  0  0  0  0  3  0  0  0  0  0  0
  -17.6450  -30.6320   24.1370 C   0  0  0  0  0  3  0  0  0  0  0  0
  -16.5320  -29.8780   23.7240 C   0  0  0  0  0  3  0  0  0  0  0  0
  -16.7220  -28.6160   23.1320 C   0  0  0  0  0  3  0  0  0  0  0  0
  -25.8800  -32.4970   23.8580 C   0  0  0  0  0  3  0  0  0  0  0  0
  -25.5810  -33.8960   24.1930 N   0  0  0  0  0  0  0  0  0  0  0  0
  -25.9100  -34.9450   23.4300 C   0  0  0  0  0  0  0  0  0  0  0  0
  -26.5740  -34.8390   22.3940 O   0  0  0  0  0  0  0  0  0  0  0  0
  -24.9970  -34.0530   25.0020 H   0  0  0  0  0  0  0  0  0  0  0  0
  -24.1850  -36.7410   23.0790 C   0  0  0  0  0  1  0  0  0  0  0  0
  -25.4260  -36.3330   23.8890 C   0  0  0  0  0  3  0  0  0  0  0  0
  -27.5660  -37.2120   24.7140 C   0  0  0  0  0  1  0  0  0  0  0  0
  -26.4620  -37.3830   23.7740 N   0  0  0  0  0  0  0  0  0  0  0  0
  -26.0580  -38.3040   23.9240 H   0  0  0  0  0  0  0  0  0  0  0  0
  -26.3990  -31.7170   25.1280 C   0  0  1  0  0  0  0  0  0  0  0  0
  -25.3070  -31.4830   26.1970 C   0  0  0  0  0  1  0  0  0  0  0  0
  -26.9760  -30.3390   24.7270 C   0  0  0  0  0  1  0  0  0  0  0  0
  -27.5540  -32.5030   25.7920 C   0  0  0  0  0  1  0  0  0  0  0  0
  1  3  1  0
  1  5  1  0
  2  4  1  0
  3  6  1  0
  5 11  1  0
  5  2  1  0
  6 56  1  0
  6  4  1  0
  6  7  1  6
  8 11  1  0
  9  8  2  0
  9 13  1  0
 11 10  2  0
 12 10  1  0
 12 17  1  0
 13 12  2  0
 14 16  1  0
 14 13  1  0
 15 14  1  0
 18 26  1  0
 19 24  1  0
 20 21  1  0
 20 19  1  0
 22 21  1  0
 22 31  1  0
 22 23  1  0
 24 18  1  0
 24 23  1  0
 25 18  2  0
 26 17  1  0
 26 27  1  0
 28 29  2  0
 29 48  1  0
 30 29  1  0
 30 33  1  0
 31 28  1  0
 31 32  1  0
 32 30  2  0
 33 34  1  0
 34 35  2  0
 36 39  1  0
 36 35  1  0
 37 36  2  0
 38 37  1  0
 38 33  2  0
 39 40  1  0
 40 41  1  0
 41 42  2  0
 43 42  1  0
 43 47  1  0
 44 43  2  0
 45 40  2  0
 45 44  1  0
 46 45  1  0
 48 49  1  0
 49 52  1  0
 49 51  1  0
 50 48  2  0
 53 54  1  0
 53 28  1  0
 55 53  1  0
 56 57  1  0
 58 60  1  0
 58 57  1  0
 59 70  2  0
 60 65  1  0
 61 69  1  0
 61 71  1  0
 62 68  1  0
 62 64  1  0
 63 69  1  0
 64 65  2  0
 64 63  1  0
 66 67  1  0
 66 60  2  0
 67 62  2  0
 68 61  1  0
 69 59  1  0
 71 73  2  0
 72 71  1  0
 74 72  1  0
 75 84  2  0
 75 80  1  0
 76 72  1  0
 76 80  1  0
 77 76  1  0
 78 79  1  0
 78 77  1  0
 79 75  1  0
 80 81  2  0
 81 82  1  0
 83 82  2  0
 84 83  1  0
 85 59  1  0
 85 86  1  0
 85 95  1  0
 86 89  1  0
 87 91  1  0
 87 86  1  0
 88 87  2  0
 91 90  1  0
 93 91  1  0
 93 94  1  0
 93 92  1  0
 95 98  1  1
 95 96  1  0
 97 95  1  0
M  ISO  4  18 100  26 100  57 101  58 101
M  END
>  <TORSDO>  (3) 
F 21

>  <SCORE>  (3) 
-14.213

>  <name>  (3) 
2

>  <ligand_id>  (3) 
2

>  <original_smiles>  (3) 
[H]c1c([H])c([H])c2c(c1[H])C([H])([H])C([H])([H])C([H])([H])C2([H])N([H])C(=O)C1([H])N(C(=O)C([H])(N([H])C(=O)C([H])(N([H])C([H])([H])[H])C([H])([H])[H])C(C([H])([H])[H])(C([H])([H])[H])C([H])([H])[H])C([H])([H])c2c([H])c(OC([H])([H])C([H])([H])[N+]3([H])C([H])([H])C([H])([H])C([H])(c4c([H])c([H])c(N([H])[H])c(C([H])([H])N([H])C(=O)N5C([H])([H])C([H])([H])C([H])([H])C([H])(n6nc(-c7c([H])c([H])c(Oc8c([H])c([H])c(F)c([H])c8F)c([H])c7[H])c(C(=O)N([H])[H])c6N([H])[H])C5([H])[H])c4[H])C([H])([H])C3([H])[H])c([H])c([H])c2C1([H])[H]

>  <smiles>  (3) 
[H]c1c([H])c([H])c2c(c1[H])C([H])([H])C([H])([H])C([H])([H])C2([H])N([H])C(=O)C1([H])N(C(=O)C([H])(N([H])C(=O)C([H])(N([H])C([H])([H])[H])C([H])([H])[H])C(C([H])([H])[H])(C([H])([H])[H])C([H])([H])[H])C([H])([H])c2c([H])c(OC([H])([H])C([H])([H])[N+]3([H])C([H])([H])C([H])([H])C([H])(c4c([H])c([H])c(N([H])[H])c(C([H])([H])N([H])C(=O)N5C([H])([H])C([H])([H])C([H])([H])C([H])(n6nc(-c7c([H])c([H])c(Oc8c([H])c([H])c(F)c([H])c8F)c([H])c7[H])c(C(=O)N([H])[H])c6N([H])[H])C5([H])[H])c4[H])C([H])([H])C3([H])[H])c([H])c([H])c2C1([H])[H]

$$$$
3:0:0
     RDKit          3D

 92101  0  0  1  0  0  0  0  0999 V2000
  -30.3500  -21.9850   20.5660 C   0  0  0  0  0  2  0  0  0  0  0  0
  -30.6720  -14.5820   20.4460 C   0  0  0  0  0  0  0  0  0  0  0  0
  -30.3530  -12.3900   19.3480 C   0  0  0  0  0  2  0  0  0  0  0  0
  -29.4040  -12.5340   18.1420 C   0  0  0  0  0  2  0  0  0  0  0  0
  -27.9400  -12.3570   18.5880 C   0  0  0  0  0  2  0  0  0  0  0  0
  -27.5860  -13.2330   19.8150 C   0  0  0  0  0  3  0  0  0  0  0  0
  -28.6560  -13.1180   20.9270 C   0  0  0  0  0  2  0  0  0  0  0  0
  -29.9700  -13.4140   20.3350 N   0  0  0  0  0  0  0  0  0  0  0  0
  -31.8500  -14.6650   20.0860 O   0  0  0  0  0  0  0  0  0  0  0  0
  -28.7540  -18.7880   19.0610 C   0  0  0  0  0  3  0  0  0  0  0  0
  -29.1100  -20.1360   19.2890 C   0  0  0  0  0  3  0  0  0  0  0  0
  -30.5440  -19.4650   21.1630 C   0  0  0  0  0  3  0  0  0  0  0  0
  -29.3090  -17.8000   19.8910 C   0  0  0  0  0  0  0  0  0  0  0  0
  -30.1940  -18.1150   20.8970 C   0  0  0  0  0  0  0  0  0  0  0  0
  -29.9850  -20.5000   20.3490 C   0  0  0  0  0  0  0  0  0  0  0  0
  -29.0560  -16.3190   19.8640 C   0  0  0  0  0  3  0  0  0  0  0  0
  -30.6500  -16.8260   21.5670 C   0  0  0  0  0  3  0  0  0  0  0  0
  -29.9930  -15.7010   20.8330 N   0  0  0  0  0  0  0  0  0  0  0  0
  -25.2050  -13.8520   20.5660 C   0  0  0  0  0  0  0  0  0  0  0  0
  -24.1380  -13.0820   20.9400 C   0  0  0  0  0  0  0  0  0  0  0  0
  -24.5960  -11.7300   20.9000 C   0  0  0  0  0  0  0  0  0  0  0  0
  -26.2430  -12.9660   20.3160 N   0  0  0  0  0  0  0  0  0  0  0  0
  -25.8820  -11.6860   20.5790 N   0  0  0  0  0  0  0  0  0  0  0  0
  -23.8700  -10.4690   21.0860 C   0  0  0  0  0  0  0  0  0  0  0  0
  -24.3120   -9.4920   22.0030 C   0  0  0  0  0  3  0  0  0  0  0  0
  -23.5860   -8.2940   22.1750 C   0  0  0  0  0  3  0  0  0  0  0  0
  -22.4050   -8.0650   21.4310 C   0  0  0  0  0  0  0  0  0  0  0  0
  -21.9830   -9.0330   20.5020 C   0  0  0  0  0  3  0  0  0  0  0  0
  -22.7090  -10.2220   20.3270 C   0  0  0  0  0  3  0  0  0  0  0  0
  -21.6510   -6.9210   21.5130 O   0  0  0  0  0  0  0  0  0  0  0  0
  -21.6170   -6.1640   22.6570 C   0  0  0  0  0  0  0  0  0  0  0  0
  -21.1850   -6.6970   23.8920 C   0  0  0  0  0  3  0  0  0  0  0  0
  -21.0990   -5.8660   25.0250 C   0  0  0  0  0  3  0  0  0  0  0  0
  -21.4360   -4.5020   24.9270 C   0  0  0  0  0  0  0  0  0  0  0  0
  -21.8620   -3.9690   23.6980 C   0  0  0  0  0  3  0  0  0  0  0  0
  -21.9490   -4.7980   22.5660 C   0  0  0  0  0  0  0  0  0  0  0  0
  -22.3420   -4.2750   21.3790 F   0  0  0  0  0  0  0  0  0  0  0  0
  -21.3460   -3.7010   26.0150 F   0  0  0  0  0  0  0  0  0  0  0  0
  -22.7440  -13.5650   21.2220 C   0  0  0  0  0  0  0  0  0  0  0  0
  -22.0170  -12.8670   22.0880 N   0  0  0  0  0  0  0  0  0  0  0  0
  -22.3070  -14.5940   20.7090 O   0  0  0  0  0  0  0  0  0  0  0  0
  -22.3850  -12.0370   22.5290 H   0  0  0  0  0  0  0  0  0  0  0  0
  -21.0820  -13.1730   22.3170 H   0  0  0  0  0  0  0  0  0  0  0  0
  -25.3700  -15.2240   20.3970 N   0  0  0  0  0  0  0  0  0  0  0  0
  -24.6020  -15.8750   20.5250 H   0  0  0  0  0  0  0  0  0  0  0  0
  -26.2120  -15.6680   20.0600 H   0  0  0  0  0  0  0  0  0  0  0  0
  -29.1930  -22.9160   20.4160 N   0  0  0  0  0  4  0  0  0  0  0  0
  -28.5260  -22.6840   21.1340 H   0  0  0  0  0  0  0  0  0  0  0  0
  -28.7660  -22.7000   19.5300 H   0  0  0  0  0  0  0  0  0  0  0  0
  -29.4820  -24.3890   20.4560 C   0  0  0  0  0  2  0  0  0  0  0  0
  -28.2450  -25.2480   20.0510 C   0  0  0  0  0  2  0  0  0  0  0  0
  -28.3800  -26.6780   20.2470 O   0  0  0  0  0  0  0  0  0  0  0  0
  -24.5910  -31.9360   23.2700 C   0  0  0  0  0  0  0  0  0  0  0  0
  -27.2140  -27.4380   20.2080 C   0  0  0  0  0  0  0  0  0  0  0  0
  -23.3800  -30.5310   21.6370 C   0  0  0  0  0  3  0  0  0  0  0  0
  -24.8270  -28.9830   20.2160 C   0  0  0  0  0  0  0  0  0  0  0  0
  -25.9130  -30.8650   21.4460 C   0  0  0  0  0  2  0  0  0  0  0  0
  -25.9910  -29.4920   20.8040 C   0  0  0  0  0  0  0  0  0  0  0  0
  -27.1860  -28.7290   20.7940 C   0  0  0  0  0  3  0  0  0  0  0  0
  -26.0250  -26.9570   19.6060 C   0  0  0  0  0  3  0  0  0  0  0  0
  -24.8420  -27.7170   19.6120 C   0  0  0  0  0  3  0  0  0  0  0  0
  -23.5880  -29.8490   20.2600 C   0  0  0  0  0  2  0  0  0  0  0  0
  -24.6470  -31.1220   22.1780 N   0  0  0  0  0  0  0  0  0  0  0  0
  -23.5050  -32.2410   23.7830 O   0  0  0  0  0  0  0  0  0  0  0  0
  -22.7190  -29.5160   22.5990 C   0  0  0  0  0  0  0  0  0  0  0  0
  -21.3940  -29.3380   22.4660 N   0  0  0  0  0  0  0  0  0  0  0  0
  -23.3960  -28.8900   23.4180 O   0  0  0  0  0  0  0  0  0  0  0  0
  -20.9090  -29.8940   21.7760 H   0  0  0  0  0  0  0  0  0  0  0  0
  -18.0100  -28.1650   22.9570 C   0  0  0  0  0  0  0  0  0  0  0  0
  -20.5690  -28.4050   23.2330 C   0  0  0  0  0  3  0  0  0  0  0  0
  -20.6630  -26.9740   22.6550 C   0  0  0  0  0  2  0  0  0  0  0  0
  -19.5600  -26.6610   21.6390 C   0  0  0  0  0  2  0  0  0  0  0  0
  -18.1790  -26.8150   22.2800 C   0  0  0  0  0  2  0  0  0  0  0  0
  -19.1340  -28.9190   23.3910 C   0  0  0  0  0  0  0  0  0  0  0  0
  -18.9230  -30.1830   23.9830 C   0  0  0  0  0  3  0  0  0  0  0  0
  -17.6220  -30.6940   24.1470 C   0  0  0  0  0  3  0  0  0  0  0  0
  -16.5120  -29.9360   23.7300 C   0  0  0  0  0  3  0  0  0  0  0  0
  -16.7070  -28.6740   23.1410 C   0  0  0  0  0  3  0  0  0  0  0  0
  -25.8800  -32.5500   23.9010 C   0  0  0  0  0  3  0  0  0  0  0  0
  -26.3890  -31.7710   25.1760 C   0  0  1  0  0  0  0  0  0  0  0  0
  -25.2920  -31.5350   26.2380 C   0  0  0  0  0  1  0  0  0  0  0  0
  -26.9680  -30.3920   24.7800 C   0  0  0  0  0  1  0  0  0  0  0  0
  -27.5410  -32.5580   25.8460 C   0  0  0  0  0  1  0  0  0  0  0  0
  -25.5830  -33.9500   24.2330 N   0  0  0  0  0  0  0  0  0  0  0  0
  -25.8960  -34.9970   23.4590 C   0  0  0  0  0  0  0  0  0  0  0  0
  -26.5420  -34.8880   22.4130 O   0  0  0  0  0  0  0  0  0  0  0  0
  -25.0090  -34.1100   25.0480 H   0  0  0  0  0  0  0  0  0  0  0  0
  -24.1500  -36.7790   23.1460 C   0  0  0  0  0  1  0  0  0  0  0  0
  -25.4190  -36.3870   23.9200 C   0  0  0  0  0  3  0  0  0  0  0  0
  -27.5760  -37.2860   24.6750 C   0  0  0  0  0  1  0  0  0  0  0  0
  -26.4420  -37.4430   23.7670 N   0  0  0  0  0  0  0  0  0  0  0  0
  -26.0370  -38.3610   23.9250 H   0  0  0  0  0  0  0  0  0  0  0  0
  2 18  1  0
  3  8  1  0
  4  5  1  0
  4  3  1  0
  6  5  1  0
  6 22  1  0
  6  7  1  0
  8  2  1  0
  8  7  1  0
  9  2  2  0
 10 11  2  0
 10 13  1  0
 11 15  1  0
 13 14  1  0
 14 12  1  0
 14 17  2  0
 15  1  1  0
 15 12  2  0
 16 13  2  0
 16 18  1  0
 18 17  1  0
 19 20  2  0
 20 39  1  0
 21 20  1  0
 21 24  1  0
 22 19  1  0
 22 23  1  0
 23 21  2  0
 24 25  1  0
 25 26  2  0
 27 30  1  0
 27 26  1  0
 28 27  2  0
 29 28  1  0
 29 24  2  0
 30 31  1  0
 31 32  1  0
 32 33  2  0
 34 33  1  0
 34 38  1  0
 35 34  2  0
 36 31  2  0
 36 35  1  0
 37 36  1  0
 39 40  1  0
 40 43  1  0
 40 42  1  0
 41 39  2  0
 44 45  1  0
 44 19  1  0
 46 44  1  0
 47 50  1  0
 47  1  1  0
 47 48  1  0
 49 47  1  0
 51 52  1  0
 51 50  1  0
 53 64  2  0
 54 52  1  0
 54 59  1  0
 55 63  1  0
 55 65  1  0
 56 62  1  0
 56 58  1  0
 57 63  1  0
 58 57  1  0
 59 58  2  0
 60 61  1  0
 60 54  2  0
 61 56  2  0
 62 55  1  0
 63 53  1  0
 65 67  2  0
 66 65  1  0
 68 66  1  0
 69 78  2  0
 69 74  1  0
 70 66  1  0
 70 74  1  0
 71 70  1  0
 72 73  1  0
 72 71  1  0
 73 69  1  0
 74 75  2  0
 75 76  1  0
 77 76  2  0
 78 77  1  0
 79 53  1  0
 79 84  1  0
 79 80  1  0
 80 83  1  1
 80 81  1  0
 82 80  1  0
 84 87  1  0
 85 89  1  0
 85 84  1  0
 86 85  2  0
 89 88  1  0
 91 89  1  0
 91 92  1  0
 91 90  1  0
M  ISO  4   2 100  18 100  51 101  52 101
M  END
>  <TORSDO>  (4) 
F 19

>  <SCORE>  (4) 
-14.496

>  <name>  (4) 
3

>  <ligand_id>  (4) 
3

>  <original_smiles>  (4) 
[H]c1c([H])c([H])c2c(c1[H])C([H])([H])C([H])([H])C([H])([H])C2([H])N([H])C(=O)C1([H])N(C(=O)C([H])(N([H])C(=O)C([H])(N([H])C([H])([H])[H])C([H])([H])[H])C(C([H])([H])[H])(C([H])([H])[H])C([H])([H])[H])C([H])([H])c2c([H])c(OC([H])([H])C([H])([H])[N+]([H])([H])C([H])([H])c3c([H])c([H])c4c(c3[H])C([H])([H])N(C(=O)N3C([H])([H])C([H])([H])C([H])([H])C([H])(n5nc(-c6c([H])c([H])c(Oc7c([H])c([H])c(F)c([H])c7F)c([H])c6[H])c(C(=O)N([H])[H])c5N([H])[H])C3([H])[H])C4([H])[H])c([H])c([H])c2C1([H])[H]

>  <smiles>  (4) 
[H]c1c([H])c([H])c2c(c1[H])C([H])([H])C([H])([H])C([H])([H])C2([H])N([H])C(=O)C1([H])N(C(=O)C([H])(N([H])C(=O)C([H])(N([H])C([H])([H])[H])C([H])([H])[H])C(C([H])([H])[H])(C([H])([H])[H])C([H])([H])[H])C([H])([H])c2c([H])c(OC([H])([H])C([H])([H])[N+]([H])([H])C([H])([H])c3c([H])c([H])c4c(c3[H])C([H])([H])N(C(=O)N3C([H])([H])C([H])([H])C([H])([H])C([H])(n5nc(-c6c([H])c([H])c(Oc7c([H])c([H])c(F)c([H])c7F)c([H])c6[H])c(C(=O)N([H])[H])c5N([H])[H])C3([H])[H])C4([H])[H])c([H])c([H])c2C1([H])[H]

$$$$
4:0:0
     RDKit          3D

 93103  0  0  1  0  0  0  0  0999 V2000
  -31.0500  -20.2710   22.0730 C   0  0  0  0  0  2  0  0  0  0  0  0
  -29.0400  -23.5930   19.4180 C   0  0  0  0  0  2  0  0  0  0  0  0
  -27.9870  -22.9790   21.4790 C   0  0  0  0  0  2  0  0  0  0  0  0
  -31.0810  -18.8340   21.5180 C   0  0  0  0  0  2  0  0  0  0  0  0
  -29.4930  -19.5490   19.7550 C   0  0  0  0  0  2  0  0  0  0  0  0
  -28.8250  -22.0760   19.3770 C   0  0  0  0  0  3  0  0  0  0  0  0
  -28.1640  -21.6850   20.6810 C   0  0  0  0  0  3  0  0  0  0  0  0
  -30.7930  -21.3270   20.9850 C   0  0  0  0  0  3  0  0  0  0  0  0
  -28.0610  -24.1460   20.4700 C   0  0  0  0  0  3  0  0  0  0  0  0
  -29.4790  -21.0190   20.2710 C   0  0  1  0  0  0  0  0  0  0  0  0
  -31.9760  -21.4940   20.0110 C   0  0  0  0  0  1  0  0  0  0  0  0
  -29.8530  -18.4810   20.7550 N   0  0  1  0  0  4  0  0  0  0  0  0
  -29.0870  -18.4650   21.4130 H   0  0  0  0  0  0  0  0  0  0  0  0
  -28.4100  -25.5350   21.1010 C   0  0  0  0  0  2  0  0  0  0  0  0
  -28.4060  -26.6810   20.2210 O   0  0  0  0  0  0  0  0  0  0  0  0
  -24.6020  -31.9360   23.2560 C   0  0  0  0  0  0  0  0  0  0  0  0
  -27.2560  -27.4460   20.2310 C   0  0  0  0  0  0  0  0  0  0  0  0
  -23.4090  -30.5190   21.6210 C   0  0  0  0  0  3  0  0  0  0  0  0
  -24.8710  -28.9710   20.2140 C   0  0  0  0  0  0  0  0  0  0  0  0
  -25.9390  -30.8670   21.4410 C   0  0  0  0  0  2  0  0  0  0  0  0
  -26.0280  -29.4920   20.8090 C   0  0  0  0  0  0  0  0  0  0  0  0
  -27.2270  -28.7380   20.8120 C   0  0  0  0  0  3  0  0  0  0  0  0
  -26.0850  -26.9450   19.6300 C   0  0  0  0  0  3  0  0  0  0  0  0
  -24.8950  -27.6980   19.6210 C   0  0  0  0  0  3  0  0  0  0  0  0
  -23.6280  -29.8340   20.2460 C   0  0  0  0  0  2  0  0  0  0  0  0
  -24.6690  -31.1190   22.1660 N   0  0  0  0  0  0  0  0  0  0  0  0
  -23.5110  -32.2340   23.7620 O   0  0  0  0  0  0  0  0  0  0  0  0
  -22.7490  -29.5020   22.5800 C   0  0  0  0  0  0  0  0  0  0  0  0
  -21.4280  -29.3120   22.4350 N   0  0  0  0  0  0  0  0  0  0  0  0
  -23.4240  -28.8870   23.4090 O   0  0  0  0  0  0  0  0  0  0  0  0
  -20.9450  -29.8590   21.7360 H   0  0  0  0  0  0  0  0  0  0  0  0
  -18.0520  -28.1000   22.8910 C   0  0  0  0  0  0  0  0  0  0  0  0
  -20.6030  -28.3750   23.2000 C   0  0  0  0  0  3  0  0  0  0  0  0
  -20.7240  -26.9410   22.6350 C   0  0  0  0  0  2  0  0  0  0  0  0
  -19.6400  -26.6040   21.6080 C   0  0  0  0  0  2  0  0  0  0  0  0
  -18.2460  -26.7470   22.2270 C   0  0  0  0  0  2  0  0  0  0  0  0
  -19.1600  -28.8700   23.3330 C   0  0  0  0  0  0  0  0  0  0  0  0
  -18.9260  -30.1360   23.9130 C   0  0  0  0  0  3  0  0  0  0  0  0
  -17.6180  -30.6350   24.0530 C   0  0  0  0  0  3  0  0  0  0  0  0
  -16.5230  -29.8620   23.6280 C   0  0  0  0  0  3  0  0  0  0  0  0
  -16.7410  -28.5950   23.0550 C   0  0  0  0  0  3  0  0  0  0  0  0
  -25.8840  -32.5590   23.8930 C   0  0  0  0  0  3  0  0  0  0  0  0
  -26.3880  -31.7910   25.1760 C   0  0  1  0  0  0  0  0  0  0  0  0
  -25.2820  -31.5560   26.2320 C   0  0  0  0  0  1  0  0  0  0  0  0
  -26.9750  -30.4130   24.7940 C   0  0  0  0  0  1  0  0  0  0  0  0
  -27.5340  -32.5850   25.8480 C   0  0  0  0  0  1  0  0  0  0  0  0
  -25.5780  -33.9590   24.2140 N   0  0  0  0  0  0  0  0  0  0  0  0
  -25.9140  -35.0060   23.4480 C   0  0  0  0  0  0  0  0  0  0  0  0
  -26.5900  -34.8940   22.4210 O   0  0  0  0  0  0  0  0  0  0  0  0
  -24.9820  -34.1200   25.0120 H   0  0  0  0  0  0  0  0  0  0  0  0
  -24.1880  -36.7940   23.0720 C   0  0  0  0  0  1  0  0  0  0  0  0
  -25.4250  -36.3960   23.8930 C   0  0  0  0  0  3  0  0  0  0  0  0
  -27.5560  -37.2850   24.7280 C   0  0  0  0  0  1  0  0  0  0  0  0
  -26.4590  -37.4480   23.7770 N   0  0  0  0  0  0  0  0  0  0  0  0
  -26.0540  -38.3690   23.9140 H   0  0  0  0  0  0  0  0  0  0  0  0
  -29.9450  -17.1100   20.1230 C   0  0  0  0  0  2  0  0  0  0  0  0
  -29.9400  -15.8560   21.0830 C   0  0  0  0  0  2  0  0  0  0  0  0
  -30.6290  -14.5800   20.4940 C   0  0  0  0  0  0  0  0  0  0  0  0
  -30.3640  -12.3980   19.3540 C   0  0  0  0  0  2  0  0  0  0  0  0
  -29.4300  -12.5970   18.1400 C   0  0  0  0  0  2  0  0  0  0  0  0
  -27.9520  -12.4560   18.5580 C   0  0  0  0  0  2  0  0  0  0  0  0
  -27.6050  -13.2860   19.8230 C   0  0  0  0  0  3  0  0  0  0  0  0
  -28.6550  -13.0620   20.9340 C   0  0  0  0  0  2  0  0  0  0  0  0
  -29.9760  -13.3850   20.3780 N   0  0  0  0  0  0  0  0  0  0  0  0
  -31.7670  -14.7230   20.0380 O   0  0  0  0  0  0  0  0  0  0  0  0
  -25.2020  -13.8960   20.5050 C   0  0  0  0  0  0  0  0  0  0  0  0
  -24.1300  -13.1260   20.8670 C   0  0  0  0  0  0  0  0  0  0  0  0
  -24.5910  -11.7740   20.8490 C   0  0  0  0  0  0  0  0  0  0  0  0
  -26.2490  -13.0130   20.2900 N   0  0  0  0  0  0  0  0  0  0  0  0
  -25.8840  -11.7320   20.5540 N   0  0  0  0  0  0  0  0  0  0  0  0
  -23.8620  -10.5140   21.0390 C   0  0  0  0  0  0  0  0  0  0  0  0
  -24.2870   -9.5480   21.9780 C   0  0  0  0  0  3  0  0  0  0  0  0
  -23.5590   -8.3510   22.1550 C   0  0  0  0  0  3  0  0  0  0  0  0
  -22.3910   -8.1130   21.3930 C   0  0  0  0  0  0  0  0  0  0  0  0
  -21.9860   -9.0660   20.4410 C   0  0  0  0  0  3  0  0  0  0  0  0
  -22.7150  -10.2540   20.2630 C   0  0  0  0  0  3  0  0  0  0  0  0
  -21.6370   -6.9680   21.4780 O   0  0  0  0  0  0  0  0  0  0  0  0
  -21.5820   -6.2250   22.6310 C   0  0  0  0  0  0  0  0  0  0  0  0
  -21.1540   -6.7830   23.8560 C   0  0  0  0  0  3  0  0  0  0  0  0
  -21.0470   -5.9670   25.0000 C   0  0  0  0  0  3  0  0  0  0  0  0
  -21.3570   -4.5970   24.9210 C   0  0  0  0  0  0  0  0  0  0  0  0
  -21.7790   -4.0400   23.7010 C   0  0  0  0  0  3  0  0  0  0  0  0
  -21.8870   -4.8510   22.5580 C   0  0  0  0  0  0  0  0  0  0  0  0
  -22.2730   -4.3050   21.3800 F   0  0  0  0  0  0  0  0  0  0  0  0
  -21.2470   -3.8120   26.0180 F   0  0  0  0  0  0  0  0  0  0  0  0
  -22.7300  -13.6060   21.1220 C   0  0  0  0  0  0  0  0  0  0  0  0
  -21.9920  -12.9110   21.9810 N   0  0  0  0  0  0  0  0  0  0  0  0
  -22.2980  -14.6300   20.5940 O   0  0  0  0  0  0  0  0  0  0  0  0
  -22.3520  -12.0810   22.4280 H   0  0  0  0  0  0  0  0  0  0  0  0
  -21.0520  -13.2140   22.1950 H   0  0  0  0  0  0  0  0  0  0  0  0
  -25.3710  -15.2650   20.3180 N   0  0  0  0  0  0  0  0  0  0  0  0
  -24.6060  -15.9250   20.4130 H   0  0  0  0  0  0  0  0  0  0  0  0
  -26.2230  -15.6940   19.9800 H   0  0  0  0  0  0  0  0  0  0  0  0
  2  9  1  0
  4  1  1  0
  5 12  1  0
  6  2  1  0
  6 10  1  0
  6  7  1  0
  7  3  1  0
  8 11  1  0
  8  1  1  0
  9 14  1  0
  9  3  1  0
 10  5  1  6
 10  7  1  0
 10  8  1  0
 12 13  1  1
 12  4  1  0
 15 17  1  0
 15 14  1  0
 16 27  2  0
 17 22  1  0
 18 26  1  0
 18 28  1  0
 19 25  1  0
 19 21  1  0
 20 26  1  0
 21 22  2  0
 21 20  1  0
 23 17  2  0
 24 23  1  0
 24 19  2  0
 25 18  1  0
 26 16  1  0
 28 30  2  0
 29 28  1  0
 31 29  1  0
 32 41  2  0
 32 37  1  0
 33 29  1  0
 33 37  1  0
 34 33  1  0
 35 36  1  0
 35 34  1  0
 36 32  1  0
 37 38  2  0
 38 39  1  0
 40 39  2  0
 41 40  1  0
 42 16  1  0
 42 47  1  0
 42 43  1  0
 43 46  1  1
 43 44  1  0
 45 43  1  0
 47 50  1  0
 48 52  1  0
 48 47  1  0
 49 48  2  0
 52 51  1  0
 54 52  1  0
 54 55  1  0
 54 53  1  0
 56 12  1  0
 56 57  1  0
 58 57  1  0
 59 64  1  0
 60 61  1  0
 60 59  1  0
 62 61  1  0
 62 69  1  0
 62 63  1  0
 64 58  1  0
 64 63  1  0
 65 58  2  0
 66 67  2  0
 67 86  1  0
 68 67  1  0
 68 71  1  0
 69 66  1  0
 69 70  1  0
 70 68  2  0
 71 72  1  0
 72 73  2  0
 74 77  1  0
 74 73  1  0
 75 74  2  0
 76 75  1  0
 76 71  2  0
 77 78  1  0
 78 79  1  0
 79 80  2  0
 81 80  1  0
 81 85  1  0
 82 81  2  0
 83 78  2  0
 83 82  1  0
 84 83  1  0
 86 87  1  0
 87 90  1  0
 87 89  1  0
 88 86  2  0
 91 92  1  0
 91 66  1  0
 93 91  1  0
M  ISO  4  14 101  15 101  57 100  58 100
M  END
>  <TORSDO>  (5) 
F 19

>  <SCORE>  (5) 
-14.728

>  <name>  (5) 
4

>  <ligand_id>  (5) 
4

>  <original_smiles>  (5) 
[H]c1c([H])c([H])c2c(c1[H])C([H])([H])C([H])([H])C([H])([H])C2([H])N([H])C(=O)C1([H])N(C(=O)C([H])(N([H])C(=O)C([H])(N([H])C([H])([H])[H])C([H])([H])[H])C(C([H])([H])[H])(C([H])([H])[H])C([H])([H])[H])C([H])([H])c2c([H])c(OC([H])([H])C3([H])C([H])([H])C4([H])C([H])(C3([H])[H])C43C([H])(C([H])([H])[H])C([H])([H])C([H])([H])[N+]([H])(C([H])([H])C([H])([H])C(=O)N4C([H])([H])C([H])([H])C([H])([H])C([H])(n5nc(-c6c([H])c([H])c(Oc7c([H])c([H])c(F)c([H])c7F)c([H])c6[H])c(C(=O)N([H])[H])c5N([H])[H])C4([H])[H])C3([H])[H])c([H])c([H])c2C1([H])[H]

>  <smiles>  (5) 
[H]c1c([H])c([H])c2c(c1[H])C([H])([H])C([H])([H])C([H])([H])C2([H])N([H])C(=O)C1([H])N(C(=O)C([H])(N([H])C(=O)C([H])(N([H])C([H])([H])[H])C([H])([H])[H])C(C([H])([H])[H])(C([H])([H])[H])C([H])([H])[H])C([H])([H])c2c([H])c(OC([H])([H])C3([H])C([H])([H])C4([H])C([H])(C3([H])[H])C43C([H])(C([H])([H])[H])C([H])([H])C([H])([H])[N+]([H])(C([H])([H])C([H])([H])C(=O)N4C([H])([H])C([H])([H])C([H])([H])C([H])(n5nc(-c6c([H])c([H])c(Oc7c([H])c([H])c(F)c([H])c7F)c([H])c6[H])c(C(=O)N([H])[H])c5N([H])[H])C4([H])[H])C3([H])[H])c([H])c([H])c2C1([H])[H]

$$$$
5:0:0
     RDKit          3D

 99108  0  0  1  0  0  0  0  0999 V2000
  -31.4480  -21.6450   18.8510 C   0  0  0  0  0  2  0  0  0  0  0  0
  -29.5130  -16.7820   21.3210 C   0  0  0  0  0  2  0  0  0  0  0  0
  -32.4200  -18.5270   18.4100 C   0  0  0  0  0  2  0  0  0  0  0  0
  -30.5630  -17.8060   21.7670 C   0  0  0  0  0  2  0  0  0  0  0  0
  -31.3900  -19.4090   17.6930 C   0  0  0  0  0  2  0  0  0  0  0  0
  -30.1660  -19.6280   19.9600 C   0  0  0  0  0  2  0  0  0  0  0  0
  -30.0050  -15.8710   20.1840 C   0  0  0  0  0  3  0  0  0  0  0  0
  -31.7770  -17.7010   19.5510 C   0  0  0  0  0  3  0  0  0  0  0  0
  -30.6800  -16.7030   19.0430 C   0  0  0  0  0  3  0  0  0  0  0  0
  -31.1960  -18.6600   20.6310 C   0  0  2  0  0  0  0  0  0  0  0  0
  -30.6030  -20.3570   18.6350 C   0  0  1  0  0  0  0  0  0  0  0  0
  -31.1120  -15.8480   17.8310 C   0  0  0  0  0  1  0  0  0  0  0  0
  -32.3010  -19.4780   21.3440 C   0  0  0  0  0  1  0  0  0  0  0  0
  -29.3290  -20.7720   17.8600 C   0  0  0  0  0  1  0  0  0  0  0  0
  -30.7810  -14.6060   20.6590 C   0  0  0  0  0  0  0  0  0  0  0  0
  -30.5780  -12.3270   19.8200 C   0  0  0  0  0  2  0  0  0  0  0  0
  -29.7160  -12.3800   18.5410 C   0  0  0  0  0  2  0  0  0  0  0  0
  -28.2230  -12.2360   18.8870 C   0  0  0  0  0  2  0  0  0  0  0  0
  -27.7650  -13.1900   20.0170 C   0  0  0  0  0  3  0  0  0  0  0  0
  -28.7640  -13.1940   21.2000 C   0  0  0  0  0  2  0  0  0  0  0  0
  -30.1290  -13.4160   20.6970 N   0  0  0  0  0  0  0  0  0  0  0  0
  -32.0080  -14.6760   20.6370 O   0  0  0  0  0  0  0  0  0  0  0  0
  -25.3440  -13.8040   20.6140 C   0  0  0  0  0  0  0  0  0  0  0  0
  -24.2610  -13.0320   20.9290 C   0  0  0  0  0  0  0  0  0  0  0  0
  -24.7340  -11.6840   20.9530 C   0  0  0  0  0  0  0  0  0  0  0  0
  -26.4010  -12.9220   20.4520 N   0  0  0  0  0  0  0  0  0  0  0  0
  -26.0390  -11.6470   20.7260 N   0  0  0  0  0  0  0  0  0  0  0  0
  -24.0150  -10.4190   21.1200 C   0  0  0  0  0  0  0  0  0  0  0  0
  -24.4220   -9.4610   22.0740 C   0  0  0  0  0  3  0  0  0  0  0  0
  -23.7030   -8.2560   22.2260 C   0  0  0  0  0  3  0  0  0  0  0  0
  -22.5660   -8.0040   21.4220 C   0  0  0  0  0  0  0  0  0  0  0  0
  -22.1800   -8.9520   20.4590 C   0  0  0  0  0  3  0  0  0  0  0  0
  -22.8990  -10.1470   20.3040 C   0  0  0  0  0  3  0  0  0  0  0  0
  -21.8220   -6.8510   21.4830 O   0  0  0  0  0  0  0  0  0  0  0  0
  -21.7480   -6.1020   22.6300 C   0  0  0  0  0  0  0  0  0  0  0  0
  -21.2880   -6.6490   23.8470 C   0  0  0  0  0  3  0  0  0  0  0  0
  -21.1640   -5.8260   24.9850 C   0  0  0  0  0  3  0  0  0  0  0  0
  -21.4870   -4.4580   24.9030 C   0  0  0  0  0  0  0  0  0  0  0  0
  -21.9410   -3.9120   23.6900 C   0  0  0  0  0  3  0  0  0  0  0  0
  -22.0660   -4.7310   22.5550 C   0  0  0  0  0  0  0  0  0  0  0  0
  -22.4820   -4.1960   21.3820 F   0  0  0  0  0  0  0  0  0  0  0  0
  -21.3610   -3.6650   25.9930 F   0  0  0  0  0  0  0  0  0  0  0  0
  -22.8450  -13.4980   21.1050 C   0  0  0  0  0  0  0  0  0  0  0  0
  -22.0760  -12.8110   21.9410 N   0  0  0  0  0  0  0  0  0  0  0  0
  -22.4270  -14.5060   20.5350 O   0  0  0  0  0  0  0  0  0  0  0  0
  -22.4270  -11.9950   22.4200 H   0  0  0  0  0  0  0  0  0  0  0  0
  -21.1230  -13.1060   22.1060 H   0  0  0  0  0  0  0  0  0  0  0  0
  -25.5130  -15.1750   20.4260 N   0  0  0  0  0  0  0  0  0  0  0  0
  -24.7450  -15.8350   20.4770 H   0  0  0  0  0  0  0  0  0  0  0  0
  -26.3940  -15.6110   20.1850 H   0  0  0  0  0  0  0  0  0  0  0  0
  -30.9740  -22.5800   19.9830 C   0  0  0  0  0  2  0  0  0  0  0  0
  -32.8380  -24.3160   19.8100 C   0  0  0  0  0  1  0  0  0  0  0  0
  -31.3250  -24.0560   19.7220 C   0  0  0  0  0  3  0  0  0  0  0  0
  -30.5580  -24.9340   20.6290 N   0  0  0  0  0  4  0  0  0  0  0  0
  -29.5790  -24.7140   20.5020 H   0  0  0  0  0  0  0  0  0  0  0  0
  -30.7840  -24.7420   21.5940 H   0  0  0  0  0  0  0  0  0  0  0  0
  -30.7050  -26.3780   20.3450 C   0  0  0  0  0  2  0  0  0  0  0  0
  -29.5020  -27.1640   20.8480 C   0  0  0  0  0  2  0  0  0  0  0  0
  -28.3810  -26.7460   20.0670 O   0  0  0  0  0  0  0  0  0  0  0  0
  -24.5670  -31.8950   23.2130 C   0  0  0  0  0  0  0  0  0  0  0  0
  -27.2290  -27.4970   20.1310 C   0  0  0  0  0  0  0  0  0  0  0  0
  -23.3510  -30.4800   21.5820 C   0  0  0  0  0  3  0  0  0  0  0  0
  -24.8010  -28.9460   20.1440 C   0  0  0  0  0  0  0  0  0  0  0  0
  -25.8590  -30.8600   21.3600 C   0  0  0  0  0  2  0  0  0  0  0  0
  -25.9460  -29.4840   20.7410 C   0  0  0  0  0  0  0  0  0  0  0  0
  -27.1500  -28.7640   20.7530 C   0  0  0  0  0  3  0  0  0  0  0  0
  -26.0710  -26.9680   19.5190 C   0  0  0  0  0  3  0  0  0  0  0  0
  -24.8550  -27.6810   19.5310 C   0  0  0  0  0  3  0  0  0  0  0  0
  -23.5500  -29.7930   20.2010 C   0  0  0  0  0  2  0  0  0  0  0  0
  -24.6120  -31.0900   22.1140 N   0  0  0  0  0  0  0  0  0  0  0  0
  -23.4870  -32.1890   23.7410 O   0  0  0  0  0  0  0  0  0  0  0  0
  -22.7170  -29.4580   22.5500 C   0  0  0  0  0  0  0  0  0  0  0  0
  -21.3920  -29.2730   22.4360 N   0  0  0  0  0  0  0  0  0  0  0  0
  -23.4100  -28.8330   23.3570 O   0  0  0  0  0  0  0  0  0  0  0  0
  -20.8950  -29.8330   21.7570 H   0  0  0  0  0  0  0  0  0  0  0  0
  -18.0240  -28.0810   22.9500 C   0  0  0  0  0  0  0  0  0  0  0  0
  -20.5820  -28.3340   23.2090 C   0  0  0  0  0  3  0  0  0  0  0  0
  -20.6830  -26.9050   22.6280 C   0  0  0  0  0  2  0  0  0  0  0  0
  -19.5740  -26.5870   21.6190 C   0  0  0  0  0  2  0  0  0  0  0  0
  -18.1950  -26.7340   22.2680 C   0  0  0  0  0  2  0  0  0  0  0  0
  -19.1450  -28.8400   23.3760 C   0  0  0  0  0  0  0  0  0  0  0  0
  -18.9320  -30.1040   23.9680 C   0  0  0  0  0  3  0  0  0  0  0  0
  -17.6290  -30.6070   24.1400 C   0  0  0  0  0  3  0  0  0  0  0  0
  -16.5220  -29.8440   23.7310 C   0  0  0  0  0  3  0  0  0  0  0  0
  -16.7200  -28.5840   23.1400 C   0  0  0  0  0  3  0  0  0  0  0  0
  -25.8630  -32.5130   23.8310 C   0  0  0  0  0  3  0  0  0  0  0  0
  -25.5650  -33.9100   24.1710 N   0  0  0  0  0  0  0  0  0  0  0  0
  -25.8990  -34.9630   23.4140 C   0  0  0  0  0  0  0  0  0  0  0  0
  -26.5690  -34.8620   22.3820 O   0  0  0  0  0  0  0  0  0  0  0  0
  -24.9700  -34.0640   24.9730 H   0  0  0  0  0  0  0  0  0  0  0  0
  -24.1820  -36.7670   23.0570 C   0  0  0  0  0  1  0  0  0  0  0  0
  -25.4140  -36.3510   23.8760 C   0  0  0  0  0  3  0  0  0  0  0  0
  -27.5480  -37.2200   24.7250 C   0  0  0  0  0  1  0  0  0  0  0  0
  -26.4530  -37.3990   23.7740 N   0  0  0  0  0  0  0  0  0  0  0  0
  -26.0540  -38.3220   23.9230 H   0  0  0  0  0  0  0  0  0  0  0  0
  -26.3980  -31.7300   25.0950 C   0  0  1  0  0  0  0  0  0  0  0  0
  -25.3220  -31.4810   26.1770 C   0  0  0  0  0  1  0  0  0  0  0  0
  -26.9730  -30.3540   24.6830 C   0  0  0  0  0  1  0  0  0  0  0  0
  -27.5600  -32.5160   25.7460 C   0  0  0  0  0  1  0  0  0  0  0  0
  1 51  1  0
  2  4  1  0
  5  3  1  0
  5 11  1  0
  6 10  1  0
  7 15  1  0
  7  2  1  0
  8  3  1  0
  8 10  1  0
  9 12  1  0
  9  8  1  0
  9  7  1  0
 10 13  1  1
 10  4  1  0
 11 14  1  6
 11  1  1  0
 11  6  1  0
 15 21  1  0
 16 21  1  0
 17 18  1  0
 17 16  1  0
 19 18  1  0
 19 26  1  0
 19 20  1  0
 21 20  1  0
 22 15  2  0
 23 24  2  0
 24 25  1  0
 24 43  1  0
 25 28  1  0
 26 23  1  0
 26 27  1  0
 27 25  2  0
 28 29  1  0
 29 30  2  0
 31 34  1  0
 31 30  1  0
 32 31  2  0
 33 32  1  0
 33 28  2  0
 34 35  1  0
 35 36  1  0
 36 37  2  0
 38 37  1  0
 38 42  1  0
 39 38  2  0
 40 35  2  0
 40 39  1  0
 41 40  1  0
 43 44  1  0
 44 47  1  0
 44 46  1  0
 45 43  2  0
 48 49  1  0
 48 23  1  0
 50 48  1  0
 53 52  1  0
 53 51  1  0
 53 54  1  0
 54 56  1  0
 55 54  1  0
 57 54  1  0
 57 58  1  0
 59 61  1  0
 59 58  1  0
 60 71  2  0
 61 66  1  0
 62 70  1  0
 62 72  1  0
 63 69  1  0
 63 65  1  0
 64 70  1  0
 65 66  2  0
 65 64  1  0
 67 68  1  0
 67 61  2  0
 68 63  2  0
 69 62  1  0
 70 60  1  0
 72 74  2  0
 73 72  1  0
 75 73  1  0
 76 85  2  0
 76 81  1  0
 77 73  1  0
 77 81  1  0
 78 77  1  0
 79 80  1  0
 79 78  1  0
 80 76  1  0
 81 82  2  0
 82 83  1  0
 84 83  2  0
 85 84  1  0
 86 60  1  0
 86 87  1  0
 86 96  1  0
 87 90  1  0
 88 92  1  0
 88 87  1  0
 89 88  2  0
 92 91  1  0
 94 92  1  0
 94 95  1  0
 94 93  1  0
 96 99  1  1
 96 97  1  0
 98 96  1  0
M  ISO  4   7 100  15 100  58 101  59 101
M  END
>  <TORSDO>  (6) 
F 22

>  <SCORE>  (6) 
-12.989

>  <name>  (6) 
5

>  <ligand_id>  (6) 
5

>  <original_smiles>  (6) 
[H]c1c([H])c([H])c2c(c1[H])C([H])([H])C([H])([H])C([H])([H])C2([H])N([H])C(=O)C1([H])N(C(=O)C([H])(N([H])C(=O)C([H])(N([H])C([H])([H])[H])C([H])([H])[H])C(C([H])([H])[H])(C([H])([H])[H])C([H])([H])[H])C([H])([H])c2c([H])c(OC([H])([H])C([H])([H])[N+]([H])([H])C([H])(C([H])([H])[H])C([H])([H])C([H])([H])C3(C([H])([H])[H])C([H])([H])C([H])([H])C4([H])C([H])(C([H])([H])[H])C([H])(C(=O)N5C([H])([H])C([H])([H])C([H])([H])C([H])(n6nc(-c7c([H])c([H])c(Oc8c([H])c([H])c(F)c([H])c8F)c([H])c7[H])c(C(=O)N([H])[H])c6N([H])[H])C5([H])[H])C([H])([H])C([H])([H])C4(C([H])([H])[H])C3([H])[H])c([H])c([H])c2C1([H])[H]

>  <smiles>  (6) 
[H]c1c([H])c([H])c2c(c1[H])C([H])([H])C([H])([H])C([H])([H])C2([H])N([H])C(=O)C1([H])N(C(=O)C([H])(N([H])C(=O)C([H])(N([H])C([H])([H])[H])C([H])([H])[H])C(C([H])([H])[H])(C([H])([H])[H])C([H])([H])[H])C([H])([H])c2c([H])c(OC([H])([H])C([H])([H])[N+]([H])([H])C([H])(C([H])([H])[H])C([H])([H])C([H])([H])C3(C([H])([H])[H])C([H])([H])C([H])([H])C4([H])C([H])(C([H])([H])[H])C([H])(C(=O)N5C([H])([H])C([H])([H])C([H])([H])C([H])(n6nc(-c7c([H])c([H])c(Oc8c([H])c([H])c(F)c([H])c8F)c([H])c7[H])c(C(=O)N([H])[H])c6N([H])[H])C5([H])[H])C([H])([H])C([H])([H])C4(C([H])([H])[H])C3([H])[H])c([H])c([H])c2C1([H])[H]

$$$$
6:0:0
     RDKit          3D

 95104  0  0  1  0  0  0  0  0999 V2000
  -28.4780  -20.9440   19.4540 C   0  0  0  0  0  3  0  0  0  0  0  0
  -30.1290  -21.4040   21.0550 C   0  0  0  0  0  3  0  0  0  0  0  0
  -27.9710  -22.2910   19.5020 C   0  0  0  0  0  0  0  0  0  0  0  0
  -28.5500  -23.3160   20.3750 C   0  0  0  0  0  0  0  0  0  0  0  0
  -29.5260  -20.4100   20.2330 C   0  0  0  0  0  0  0  0  0  0  0  0
  -29.6770  -22.7850   21.1180 C   0  0  0  0  0  0  0  0  0  0  0  0
  -25.4850  -24.0030   20.1300 C   0  0  0  0  0  0  0  0  0  0  0  0
  -26.4040  -24.5510   21.2150 C   0  0  0  0  0  2  0  0  0  0  0  0
  -26.0840  -23.8180   18.7330 C   0  0  0  0  0  2  0  0  0  0  0  0
  -27.8670  -24.7840   20.7620 C   0  0  0  0  0  3  0  0  0  0  0  0
  -26.7900  -22.4980   18.5240 C   0  0  1  0  0  0  0  0  0  0  0  0
  -30.4600  -23.6990   22.0490 C   0  0  0  0  0  1  0  0  0  0  0  0
  -27.3470  -22.5280   17.0840 C   0  0  0  0  0  1  0  0  0  0  0  0
  -25.7260  -21.3660   18.6070 C   0  0  0  0  0  1  0  0  0  0  0  0
  -24.3030  -23.7420   20.3640 O   0  0  0  0  0  0  0  0  0  0  0  0
  -28.1530  -26.1840   20.1460 O   0  0  0  0  0  0  0  0  0  0  0  0
  -24.6210  -31.8770   23.2680 C   0  0  0  0  0  0  0  0  0  0  0  0
  -27.1530  -27.2190   20.1510 C   0  0  0  0  0  0  0  0  0  0  0  0
  -23.4090  -30.5040   21.6270 C   0  0  0  0  0  3  0  0  0  0  0  0
  -24.8460  -28.9720   20.1760 C   0  0  0  0  0  0  0  0  0  0  0  0
  -25.9690  -30.7500   21.4800 C   0  0  0  0  0  2  0  0  0  0  0  0
  -26.0270  -29.3750   20.8160 C   0  0  0  0  0  0  0  0  0  0  0  0
  -27.1770  -28.5020   20.8220 C   0  0  0  0  0  3  0  0  0  0  0  0
  -25.9920  -27.0030   19.3810 C   0  0  0  0  0  3  0  0  0  0  0  0
  -24.8370  -27.7870   19.4480 C   0  0  0  0  0  3  0  0  0  0  0  0
  -23.6230  -29.8630   20.2370 C   0  0  0  0  0  2  0  0  0  0  0  0
  -24.6860  -31.0580   22.1810 N   0  0  0  0  0  0  0  0  0  0  0  0
  -23.5320  -32.1950   23.7670 O   0  0  0  0  0  0  0  0  0  0  0  0
  -22.7310  -29.4750   22.5670 C   0  0  0  0  0  0  0  0  0  0  0  0
  -21.4040  -29.3070   22.4340 N   0  0  0  0  0  0  0  0  0  0  0  0
  -23.4000  -28.8340   23.3820 O   0  0  0  0  0  0  0  0  0  0  0  0
  -20.9210  -29.8730   21.7520 H   0  0  0  0  0  0  0  0  0  0  0  0
  -18.0130  -28.1280   22.9260 C   0  0  0  0  0  0  0  0  0  0  0  0
  -20.5750  -28.3660   23.1930 C   0  0  0  0  0  3  0  0  0  0  0  0
  -20.6650  -26.9400   22.6010 C   0  0  0  0  0  2  0  0  0  0  0  0
  -19.5580  -26.6370   21.5860 C   0  0  0  0  0  2  0  0  0  0  0  0
  -18.1780  -26.7860   22.2340 C   0  0  0  0  0  2  0  0  0  0  0  0
  -19.1390  -28.8760   23.3630 C   0  0  0  0  0  0  0  0  0  0  0  0
  -18.9290  -30.1330   23.9730 C   0  0  0  0  0  3  0  0  0  0  0  0
  -17.6270  -30.6410   24.1480 C   0  0  0  0  0  3  0  0  0  0  0  0
  -16.5170  -29.8890   23.7270 C   0  0  0  0  0  3  0  0  0  0  0  0
  -16.7110  -28.6340   23.1220 C   0  0  0  0  0  3  0  0  0  0  0  0
  -25.9060  -32.4820   23.9080 C   0  0  0  0  0  3  0  0  0  0  0  0
  -26.3860  -31.7130   25.2000 C   0  0  1  0  0  0  0  0  0  0  0  0
  -25.2690  -31.5030   26.2480 C   0  0  0  0  0  1  0  0  0  0  0  0
  -26.9530  -30.3200   24.8400 C   0  0  0  0  0  1  0  0  0  0  0  0
  -27.5400  -32.4940   25.8730 C   0  0  0  0  0  1  0  0  0  0  0  0
  -25.6220  -33.8900   24.2240 N   0  0  0  0  0  0  0  0  0  0  0  0
  -25.9630  -34.9280   23.4510 C   0  0  0  0  0  0  0  0  0  0  0  0
  -26.6260  -34.8020   22.4180 O   0  0  0  0  0  0  0  0  0  0  0  0
  -25.0330  -34.0630   25.0260 H   0  0  0  0  0  0  0  0  0  0  0  0
  -24.2590  -36.7420   23.0840 C   0  0  0  0  0  1  0  0  0  0  0  0
  -25.4980  -36.3280   23.8950 C   0  0  0  0  0  3  0  0  0  0  0  0
  -27.6470  -37.1900   24.7100 C   0  0  0  0  0  1  0  0  0  0  0  0
  -26.5440  -37.3650   23.7680 N   0  0  0  0  0  0  0  0  0  0  0  0
  -26.1510  -38.2920   23.9100 H   0  0  0  0  0  0  0  0  0  0  0  0
  -30.0250  -18.8990   19.9410 C   0  0  0  0  0  2  0  0  0  0  0  0
  -30.1320  -17.6640   20.9920 C   0  0  0  0  0  2  0  0  0  0  0  0
  -29.6180  -16.1500   20.6230 C   0  0  0  0  0  2  0  0  0  0  0  0
  -30.5170  -14.8170   20.4120 C   0  0  0  0  0  0  0  0  0  0  0  0
  -30.3690  -12.5350   19.3690 C   0  0  0  0  0  2  0  0  0  0  0  0
  -29.4270  -12.6280   18.1440 C   0  0  0  0  0  2  0  0  0  0  0  0
  -27.9520  -12.4520   18.5580 C   0  0  0  0  0  2  0  0  0  0  0  0
  -27.5780  -13.3090   19.7940 C   0  0  0  0  0  3  0  0  0  0  0  0
  -28.6330  -13.1840   20.9130 C   0  0  0  0  0  2  0  0  0  0  0  0
  -29.9370  -13.5610   20.3490 N   0  0  0  0  0  0  0  0  0  0  0  0
  -31.7040  -14.9410   20.0970 O   0  0  0  0  0  0  0  0  0  0  0  0
  -25.1830  -13.8970   20.5050 C   0  0  0  0  0  0  0  0  0  0  0  0
  -24.1160  -13.1230   20.8720 C   0  0  0  0  0  0  0  0  0  0  0  0
  -24.5820  -11.7730   20.8500 C   0  0  0  0  0  0  0  0  0  0  0  0
  -26.2290  -13.0190   20.2750 N   0  0  0  0  0  0  0  0  0  0  0  0
  -25.8740  -11.7370   20.5440 N   0  0  0  0  0  0  0  0  0  0  0  0
  -23.8570  -10.5100   21.0430 C   0  0  0  0  0  0  0  0  0  0  0  0
  -24.2860   -9.5440   21.9790 C   0  0  0  0  0  3  0  0  0  0  0  0
  -23.5600   -8.3470   22.1580 C   0  0  0  0  0  3  0  0  0  0  0  0
  -22.3890   -8.1070   21.3990 C   0  0  0  0  0  0  0  0  0  0  0  0
  -21.9790   -9.0620   20.4500 C   0  0  0  0  0  3  0  0  0  0  0  0
  -22.7070  -10.2510   20.2720 C   0  0  0  0  0  3  0  0  0  0  0  0
  -21.6350   -6.9620   21.4860 O   0  0  0  0  0  0  0  0  0  0  0  0
  -21.5840   -6.2190   22.6370 C   0  0  0  0  0  0  0  0  0  0  0  0
  -21.1500   -6.7690   23.8610 C   0  0  0  0  0  3  0  0  0  0  0  0
  -21.0510   -5.9530   25.0060 C   0  0  0  0  0  3  0  0  0  0  0  0
  -21.3760   -4.5850   24.9260 C   0  0  0  0  0  0  0  0  0  0  0  0
  -21.8050   -4.0340   23.7060 C   0  0  0  0  0  3  0  0  0  0  0  0
  -21.9060   -4.8470   22.5630 C   0  0  0  0  0  0  0  0  0  0  0  0
  -22.3010   -4.3060   21.3860 F   0  0  0  0  0  0  0  0  0  0  0  0
  -21.2720   -3.7990   26.0210 F   0  0  0  0  0  0  0  0  0  0  0  0
  -22.7160  -13.5970   21.1340 C   0  0  0  0  0  0  0  0  0  0  0  0
  -21.9840  -12.9000   21.9960 N   0  0  0  0  0  0  0  0  0  0  0  0
  -22.2790  -14.6210   20.6100 O   0  0  0  0  0  0  0  0  0  0  0  0
  -22.3480  -12.0690   22.4360 H   0  0  0  0  0  0  0  0  0  0  0  0
  -21.0440  -13.1980   22.2180 H   0  0  0  0  0  0  0  0  0  0  0  0
  -25.3480  -15.2670   20.3250 N   0  0  0  0  0  0  0  0  0  0  0  0
  -24.5900  -15.9290   20.4420 H   0  0  0  0  0  0  0  0  0  0  0  0
  -26.2030  -15.7010   20.0040 H   0  0  0  0  0  0  0  0  0  0  0  0
  1  3  2  0
  1  5  1  0
  2  6  1  0
  3  4  1  0
  4 10  1  0
  4  6  2  0
  5  2  2  0
  6 12  1  0
  7 15  2  0
  7  8  1  0
  9  7  1  0
 10 16  1  0
 10  8  1  0
 11 14  1  6
 11  9  1  0
 11  3  1  0
 13 11  1  0
 16 18  1  0
 17 28  2  0
 18 23  1  0
 19 27  1  0
 19 29  1  0
 20 26  1  0
 20 22  1  0
 21 27  1  0
 22 23  2  0
 22 21  1  0
 24 25  1  0
 24 18  2  0
 25 20  2  0
 26 19  1  0
 27 17  1  0
 29 31  2  0
 30 29  1  0
 32 30  1  0
 33 42  2  0
 33 38  1  0
 34 30  1  0
 34 38  1  0
 35 34  1  0
 36 37  1  0
 36 35  1  0
 37 33  1  0
 38 39  2  0
 39 40  1  0
 41 40  2  0
 42 41  1  0
 43 17  1  0
 43 48  1  0
 43 44  1  0
 44 47  1  1
 44 45  1  0
 46 44  1  0
 48 51  1  0
 49 53  1  0
 49 48  1  0
 50 49  2  0
 53 52  1  0
 55 53  1  0
 55 56  1  0
 55 54  1  0
 57  5  1  0
 57 58  1  0
 59 58  1  0
 60 59  1  0
 61 66  1  0
 62 63  1  0
 62 61  1  0
 64 63  1  0
 64 71  1  0
 64 65  1  0
 66 60  1  0
 66 65  1  0
 67 60  2  0
 68 69  2  0
 69 88  1  0
 70 69  1  0
 70 73  1  0
 71 68  1  0
 71 72  1  0
 72 70  2  0
 73 74  1  0
 74 75  2  0
 76 79  1  0
 76 75  1  0
 77 76  2  0
 78 77  1  0
 78 73  2  0
 79 80  1  0
 80 81  1  0
 81 82  2  0
 83 82  1  0
 83 87  1  0
 84 83  2  0
 85 80  2  0
 85 84  1  0
 86 85  1  0
 88 89  1  0
 89 92  1  0
 89 91  1  0
 90 88  2  0
 93 94  1  0
 93 68  1  0
 95 93  1  0
M  ISO  4  10 101  16 101  59 100  60 100
M  END
>  <TORSDO>  (7) 
F 19

>  <SCORE>  (7) 
-13.983

>  <name>  (7) 
6

>  <ligand_id>  (7) 
6

>  <original_smiles>  (7) 
[H]c1c([H])c([H])c2c(c1[H])C([H])([H])C([H])([H])C([H])([H])C2([H])N([H])C(=O)C1([H])N(C(=O)C([H])(N([H])C(=O)C([H])(N([H])C([H])([H])[H])C([H])([H])[H])C(C([H])([H])[H])(C([H])([H])[H])C([H])([H])[H])C([H])([H])c2c([H])c(OC3([H])c4c(C([H])([H])[H])c([H])c(C([H])([H])C([H])([H])C([H])([H])C(=O)N5C([H])([H])C([H])([H])C([H])([H])C([H])(n6nc(-c7c([H])c([H])c(Oc8c([H])c([H])c(F)c([H])c8F)c([H])c7[H])c(C(=O)N([H])[H])c6N([H])[H])C5([H])[H])c([H])c4C(C([H])([H])[H])(C([H])([H])[H])C([H])([H])C(=O)C3([H])[H])c([H])c([H])c2C1([H])[H]

>  <smiles>  (7) 
[H]c1c([H])c([H])c2c(c1[H])C([H])([H])C([H])([H])C([H])([H])C2([H])N([H])C(=O)C1([H])N(C(=O)C([H])(N([H])C(=O)C([H])(N([H])C([H])([H])[H])C([H])([H])[H])C(C([H])([H])[H])(C([H])([H])[H])C([H])([H])[H])C([H])([H])c2c([H])c(OC3([H])c4c(C([H])([H])[H])c([H])c(C([H])([H])C([H])([H])C([H])([H])C(=O)N5C([H])([H])C([H])([H])C([H])([H])C([H])(n6nc(-c7c([H])c([H])c(Oc8c([H])c([H])c(F)c([H])c8F)c([H])c7[H])c(C(=O)N([H])[H])c6N([H])[H])C5([H])[H])c([H])c4C(C([H])([H])[H])(C([H])([H])[H])C([H])([H])C(=O)C3([H])[H])c([H])c([H])c2C1([H])[H]

$$$$
7:0:0
     RDKit          3D

 93102  0  0  1  0  0  0  0  0999 V2000
  -29.2970  -20.9120   21.4970 C   0  0  0  0  0  3  0  0  0  0  0  0
  -28.9910  -22.2340   21.1290 C   0  0  0  0  0  3  0  0  0  0  0  0
  -29.7380  -20.3800   19.1640 C   0  0  0  0  0  3  0  0  0  0  0  0
  -29.6220  -19.9610   20.5100 C   0  0  0  0  0  0  0  0  0  0  0  0
  -28.9900  -22.6180   19.7720 C   0  0  0  0  0  0  0  0  0  0  0  0
  -29.3980  -21.6920   18.7820 C   0  0  0  0  0  0  0  0  0  0  0  0
  -29.4110  -22.0480   17.3030 C   0  0  0  0  0  1  0  0  0  0  0  0
  -30.7430  -14.4900   20.4220 C   0  0  0  0  0  0  0  0  0  0  0  0
  -30.3550  -12.3500   19.2650 C   0  0  0  0  0  2  0  0  0  0  0  0
  -29.4020  -12.5410   18.0690 C   0  0  0  0  0  2  0  0  0  0  0  0
  -27.9370  -12.3650   18.5180 C   0  0  0  0  0  2  0  0  0  0  0  0
  -27.5930  -13.2130   19.7650 C   0  0  0  0  0  3  0  0  0  0  0  0
  -28.6760  -13.0770   20.8690 C   0  0  0  0  0  2  0  0  0  0  0  0
  -30.0000  -13.3530   20.2770 N   0  0  0  0  0  0  0  0  0  0  0  0
  -31.9040  -14.5860   20.0160 O   0  0  0  0  0  0  0  0  0  0  0  0
  -29.2100  -17.5940   19.7390 C   0  0  0  0  0  2  0  0  0  0  0  0
  -30.9890  -17.9370   21.4100 C   0  0  0  0  0  2  0  0  0  0  0  0
  -29.0040  -16.1600   20.1910 C   0  0  0  0  0  2  0  0  0  0  0  0
  -30.8170  -16.4740   21.9000 C   0  0  0  0  0  2  0  0  0  0  0  0
  -29.6540  -18.4830   20.8900 C   0  0  0  0  0  3  0  0  0  0  0  0
  -30.1260  -15.5760   20.9450 N   0  0  0  0  0  0  0  0  0  0  0  0
  -25.2160  -13.8560   20.4960 C   0  0  0  0  0  0  0  0  0  0  0  0
  -24.1470  -13.0930   20.8720 C   0  0  0  0  0  0  0  0  0  0  0  0
  -24.6030  -11.7400   20.8490 C   0  0  0  0  0  0  0  0  0  0  0  0
  -26.2520  -12.9600   20.2670 N   0  0  0  0  0  0  0  0  0  0  0  0
  -25.8900  -11.6870   20.5400 N   0  0  0  0  0  0  0  0  0  0  0  0
  -23.8780  -10.4830   21.0430 C   0  0  0  0  0  0  0  0  0  0  0  0
  -24.3250   -9.5140   21.9680 C   0  0  0  0  0  3  0  0  0  0  0  0
  -23.6020   -8.3160   22.1490 C   0  0  0  0  0  3  0  0  0  0  0  0
  -22.4210   -8.0820   21.4050 C   0  0  0  0  0  0  0  0  0  0  0  0
  -21.9970   -9.0400   20.4670 C   0  0  0  0  0  3  0  0  0  0  0  0
  -22.7200  -10.2290   20.2830 C   0  0  0  0  0  3  0  0  0  0  0  0
  -21.6680   -6.9370   21.4980 O   0  0  0  0  0  0  0  0  0  0  0  0
  -21.6430   -6.1860   22.6440 C   0  0  0  0  0  0  0  0  0  0  0  0
  -21.2480   -6.7330   23.8850 C   0  0  0  0  0  3  0  0  0  0  0  0
  -21.1690   -5.9080   25.0250 C   0  0  0  0  0  3  0  0  0  0  0  0
  -21.4740   -4.5380   24.9250 C   0  0  0  0  0  0  0  0  0  0  0  0
  -21.8630   -3.9900   23.6890 C   0  0  0  0  0  3  0  0  0  0  0  0
  -21.9450   -4.8130   22.5520 C   0  0  0  0  0  0  0  0  0  0  0  0
  -22.2980   -4.2760   21.3590 F   0  0  0  0  0  0  0  0  0  0  0  0
  -21.3920   -3.7430   26.0180 F   0  0  0  0  0  0  0  0  0  0  0  0
  -22.7520  -13.5780   21.1420 C   0  0  0  0  0  0  0  0  0  0  0  0
  -22.0220  -12.8880   22.0110 N   0  0  0  0  0  0  0  0  0  0  0  0
  -22.3170  -14.6040   20.6180 O   0  0  0  0  0  0  0  0  0  0  0  0
  -22.3850  -12.0590   22.4580 H   0  0  0  0  0  0  0  0  0  0  0  0
  -21.0850  -13.1950   22.2360 H   0  0  0  0  0  0  0  0  0  0  0  0
  -25.3810  -15.2260   20.3060 N   0  0  0  0  0  0  0  0  0  0  0  0
  -24.6130  -15.8790   20.4110 H   0  0  0  0  0  0  0  0  0  0  0  0
  -26.2260  -15.6610   19.9630 H   0  0  0  0  0  0  0  0  0  0  0  0
  -28.4710  -23.9970   19.4060 C   0  0  0  0  0  2  0  0  0  0  0  0
  -29.5750  -25.0310   19.1620 C   0  0  0  0  0  2  0  0  0  0  0  0
  -28.9770  -26.4180   18.9300 C   0  0  0  0  0  2  0  0  0  0  0  0
  -28.4550  -26.8600   20.1750 O   0  0  0  0  0  0  0  0  0  0  0  0
  -24.5800  -31.9140   23.2470 C   0  0  0  0  0  0  0  0  0  0  0  0
  -27.2590  -27.5270   20.1530 C   0  0  0  0  0  0  0  0  0  0  0  0
  -23.3750  -30.4970   21.6130 C   0  0  0  0  0  3  0  0  0  0  0  0
  -24.8360  -28.9660   20.1880 C   0  0  0  0  0  0  0  0  0  0  0  0
  -25.8940  -30.8780   21.4100 C   0  0  0  0  0  2  0  0  0  0  0  0
  -25.9840  -29.5090   20.7760 C   0  0  0  0  0  0  0  0  0  0  0  0
  -27.1920  -28.7870   20.7730 C   0  0  0  0  0  3  0  0  0  0  0  0
  -26.0950  -26.9750   19.5720 C   0  0  0  0  0  3  0  0  0  0  0  0
  -24.8820  -27.6930   19.5890 C   0  0  0  0  0  3  0  0  0  0  0  0
  -23.5840  -29.8110   20.2350 C   0  0  0  0  0  2  0  0  0  0  0  0
  -24.6340  -31.1080   22.1510 N   0  0  0  0  0  0  0  0  0  0  0  0
  -23.4950  -32.2040   23.7700 O   0  0  0  0  0  0  0  0  0  0  0  0
  -22.7340  -29.4750   22.5780 C   0  0  0  0  0  0  0  0  0  0  0  0
  -21.4100  -29.2890   22.4540 N   0  0  0  0  0  0  0  0  0  0  0  0
  -23.4230  -28.8510   23.3880 O   0  0  0  0  0  0  0  0  0  0  0  0
  -20.9160  -29.8450   21.7690 H   0  0  0  0  0  0  0  0  0  0  0  0
  -18.0390  -28.0950   22.9590 C   0  0  0  0  0  0  0  0  0  0  0  0
  -20.5970  -28.3500   23.2250 C   0  0  0  0  0  3  0  0  0  0  0  0
  -20.6970  -26.9200   22.6430 C   0  0  0  0  0  2  0  0  0  0  0  0
  -19.5920  -26.6020   21.6320 C   0  0  0  0  0  2  0  0  0  0  0  0
  -18.2120  -26.7470   22.2800 C   0  0  0  0  0  2  0  0  0  0  0  0
  -19.1590  -28.8550   23.3890 C   0  0  0  0  0  0  0  0  0  0  0  0
  -18.9440  -30.1180   23.9810 C   0  0  0  0  0  3  0  0  0  0  0  0
  -17.6400  -30.6210   24.1510 C   0  0  0  0  0  3  0  0  0  0  0  0
  -16.5350  -29.8580   23.7400 C   0  0  0  0  0  3  0  0  0  0  0  0
  -16.7340  -28.5980   23.1490 C   0  0  0  0  0  3  0  0  0  0  0  0
  -25.8690  -32.5390   23.8710 C   0  0  0  0  0  3  0  0  0  0  0  0
  -26.3890  -31.7680   25.1450 C   0  0  1  0  0  0  0  0  0  0  0  0
  -25.2990  -31.5300   26.2150 C   0  0  0  0  0  1  0  0  0  0  0  0
  -26.9720  -30.3910   24.7500 C   0  0  0  0  0  1  0  0  0  0  0  0
  -27.5410  -32.5630   25.8060 C   0  0  0  0  0  1  0  0  0  0  0  0
  -25.5650  -33.9380   24.1990 N   0  0  0  0  0  0  0  0  0  0  0  0
  -25.8980  -34.9860   23.4340 C   0  0  0  0  0  0  0  0  0  0  0  0
  -26.5700  -34.8780   22.4040 O   0  0  0  0  0  0  0  0  0  0  0  0
  -24.9720  -34.0980   25.0010 H   0  0  0  0  0  0  0  0  0  0  0  0
  -24.1720  -36.7750   23.0670 C   0  0  0  0  0  1  0  0  0  0  0  0
  -25.4090  -36.3750   23.8850 C   0  0  0  0  0  3  0  0  0  0  0  0
  -27.5420  -37.2590   24.7180 C   0  0  0  0  0  1  0  0  0  0  0  0
  -26.4420  -37.4270   23.7720 N   0  0  0  0  0  0  0  0  0  0  0  0
  -26.0350  -38.3480   23.9190 H   0  0  0  0  0  0  0  0  0  0  0  0
  2  1  1  0
  3  4  1  0
  4  1  2  0
  5  2  2  0
  6  3  2  0
  6  5  1  0
  7  6  1  0
  8 21  1  0
  9 14  1  0
 10 11  1  0
 10  9  1  0
 12 11  1  0
 12 25  1  0
 12 13  1  0
 14  8  1  0
 14 13  1  0
 15  8  2  0
 16 18  1  0
 16 20  1  0
 17 19  1  0
 18 21  1  0
 20  4  1  0
 20 17  1  0
 21 19  1  0
 22 23  2  0
 23 42  1  0
 24 23  1  0
 24 27  1  0
 25 22  1  0
 25 26  1  0
 26 24  2  0
 27 28  1  0
 28 29  2  0
 30 33  1  0
 30 29  1  0
 31 30  2  0
 32 31  1  0
 32 27  2  0
 33 34  1  0
 34 35  1  0
 35 36  2  0
 37 36  1  0
 37 41  1  0
 38 37  2  0
 39 34  2  0
 39 38  1  0
 40 39  1  0
 42 43  1  0
 43 46  1  0
 43 45  1  0
 44 42  2  0
 47 48  1  0
 47 22  1  0
 49 47  1  0
 50  5  1  0
 51 50  1  0
 52 51  1  0
 52 53  1  0
 54 65  2  0
 55 53  1  0
 55 60  1  0
 56 64  1  0
 56 66  1  0
 57 63  1  0
 57 59  1  0
 58 64  1  0
 59 58  1  0
 60 59  2  0
 61 62  1  0
 61 55  2  0
 62 57  2  0
 63 56  1  0
 64 54  1  0
 66 68  2  0
 67 66  1  0
 69 67  1  0
 70 79  2  0
 70 75  1  0
 71 67  1  0
 71 75  1  0
 72 71  1  0
 73 74  1  0
 73 72  1  0
 74 70  1  0
 75 76  2  0
 76 77  1  0
 78 77  2  0
 79 78  1  0
 80 54  1  0
 80 85  1  0
 80 81  1  0
 81 84  1  1
 81 82  1  0
 83 81  1  0
 85 88  1  0
 86 90  1  0
 86 85  1  0
 87 86  2  0
 90 89  1  0
 92 90  1  0
 92 93  1  0
 92 91  1  0
M  ISO  4   8 100  21 100  52 101  53 101
M  END
>  <TORSDO>  (8) 
F 19

>  <SCORE>  (8) 
-14.657

>  <name>  (8) 
7

>  <ligand_id>  (8) 
7

>  <original_smiles>  (8) 
[H]c1c([H])c([H])c2c(c1[H])C([H])([H])C([H])([H])C([H])([H])C2([H])N([H])C(=O)C1([H])N(C(=O)C([H])(N([H])C(=O)C([H])(N([H])C([H])([H])[H])C([H])([H])[H])C(C([H])([H])[H])(C([H])([H])[H])C([H])([H])[H])C([H])([H])c2c([H])c(OC([H])([H])C([H])([H])C([H])([H])c3c([H])c([H])c(C4([H])C([H])([H])C([H])([H])N(C(=O)N5C([H])([H])C([H])([H])C([H])([H])C([H])(n6nc(-c7c([H])c([H])c(Oc8c([H])c([H])c(F)c([H])c8F)c([H])c7[H])c(C(=O)N([H])[H])c6N([H])[H])C5([H])[H])C([H])([H])C4([H])[H])c([H])c3C([H])([H])[H])c([H])c([H])c2C1([H])[H]

>  <smiles>  (8) 
[H]c1c([H])c([H])c2c(c1[H])C([H])([H])C([H])([H])C([H])([H])C2([H])N([H])C(=O)C1([H])N(C(=O)C([H])(N([H])C(=O)C([H])(N([H])C([H])([H])[H])C([H])([H])[H])C(C([H])([H])[H])(C([H])([H])[H])C([H])([H])[H])C([H])([H])c2c([H])c(OC([H])([H])C([H])([H])C([H])([H])c3c([H])c([H])c(C4([H])C([H])([H])C([H])([H])N(C(=O)N5C([H])([H])C([H])([H])C([H])([H])C([H])(n6nc(-c7c([H])c([H])c(Oc8c([H])c([H])c(F)c([H])c8F)c([H])c7[H])c(C(=O)N([H])[H])c6N([H])[H])C5([H])[H])C([H])([H])C4([H])[H])c([H])c3C([H])([H])[H])c([H])c([H])c2C1([H])[H]

$$$$
8:0:0
     RDKit          3D

 94102  0  0  1  0  0  0  0  0999 V2000
  -28.0210  -19.8560   19.2350 C   0  0  0  0  0  3  0  0  0  0  0  0
  -29.7310  -21.8240   20.9250 C   0  0  0  0  0  3  0  0  0  0  0  0
  -28.0700  -22.2920   19.2390 C   0  0  0  0  0  3  0  0  0  0  0  0
  -28.8910  -19.3770   20.1610 C   0  0  0  0  0  0  0  0  0  0  0  0
  -28.9750  -22.6750   20.1700 C   0  0  0  0  0  0  0  0  0  0  0  0
  -27.6620  -21.0840   18.8210 C   0  0  0  0  0  0  0  0  0  0  0  0
  -29.7570  -20.3210   20.9560 C   0  0  0  0  0  0  0  0  0  0  0  0
  -30.5780  -19.8610   21.7540 O   0  0  0  0  0  0  0  0  0  0  0  0
  -26.7490  -21.1070   17.8340 F   0  0  0  0  0  0  0  0  0  0  0  0
  -28.9400  -17.8650   20.3660 C   0  0  0  0  0  0  0  0  0  0  0  0
  -27.9290  -17.2060   20.0820 O   0  0  0  0  0  0  0  0  0  0  0  0
  -30.1730  -17.0490   20.8580 C   0  0  0  0  0  2  0  0  0  0  0  0
  -30.6340  -14.5710   20.4080 C   0  0  0  0  0  0  0  0  0  0  0  0
  -30.3560  -12.4080   19.2460 C   0  0  0  0  0  2  0  0  0  0  0  0
  -29.3910  -12.6200   18.0630 C   0  0  0  0  0  2  0  0  0  0  0  0
  -27.9260  -12.4620   18.5130 C   0  0  0  0  0  2  0  0  0  0  0  0
  -27.6040  -13.2760   19.7960 C   0  0  0  0  0  3  0  0  0  0  0  0
  -28.6800  -13.0460   20.8810 C   0  0  0  0  0  2  0  0  0  0  0  0
  -29.9880  -13.3770   20.2920 N   0  0  0  0  0  0  0  0  0  0  0  0
  -31.7640  -14.7660   19.9510 O   0  0  0  0  0  0  0  0  0  0  0  0
  -29.8850  -15.5890   20.8820 N   0  0  0  0  0  0  0  0  0  0  0  0
  -28.9450  -15.3490   21.1600 H   0  0  0  0  0  0  0  0  0  0  0  0
  -25.2190  -13.8690   20.5550 C   0  0  0  0  0  0  0  0  0  0  0  0
  -24.1590  -13.0890   20.9300 C   0  0  0  0  0  0  0  0  0  0  0  0
  -24.6200  -11.7380   20.8720 C   0  0  0  0  0  0  0  0  0  0  0  0
  -26.2610  -12.9930   20.2950 N   0  0  0  0  0  0  0  0  0  0  0  0
  -25.9050  -11.7050   20.5390 N   0  0  0  0  0  0  0  0  0  0  0  0
  -23.9000  -10.4710   21.0570 C   0  0  0  0  0  0  0  0  0  0  0  0
  -24.3480   -9.4920   21.9720 C   0  0  0  0  0  3  0  0  0  0  0  0
  -23.6280   -8.2910   22.1480 C   0  0  0  0  0  3  0  0  0  0  0  0
  -22.4450   -8.0580   21.4080 C   0  0  0  0  0  0  0  0  0  0  0  0
  -22.0140   -9.0250   20.4830 C   0  0  0  0  0  3  0  0  0  0  0  0
  -22.7360  -10.2170   20.3050 C   0  0  0  0  0  3  0  0  0  0  0  0
  -21.6970   -6.9090   21.4890 O   0  0  0  0  0  0  0  0  0  0  0  0
  -21.6580   -6.1560   22.6370 C   0  0  0  0  0  0  0  0  0  0  0  0
  -21.2030   -6.6870   23.8620 C   0  0  0  0  0  3  0  0  0  0  0  0
  -21.1140   -5.8610   24.9980 C   0  0  0  0  0  3  0  0  0  0  0  0
  -21.4680   -4.5010   24.9110 C   0  0  0  0  0  0  0  0  0  0  0  0
  -21.9200   -3.9690   23.6920 C   0  0  0  0  0  3  0  0  0  0  0  0
  -22.0120   -4.7940   22.5560 C   0  0  0  0  0  0  0  0  0  0  0  0
  -22.4250   -4.2700   21.3770 F   0  0  0  0  0  0  0  0  0  0  0  0
  -21.3760   -3.7060   26.0020 F   0  0  0  0  0  0  0  0  0  0  0  0
  -22.7670  -13.5600   21.2380 C   0  0  0  0  0  0  0  0  0  0  0  0
  -22.0570  -12.8460   22.1050 N   0  0  0  0  0  0  0  0  0  0  0  0
  -22.3200  -14.5960   20.7480 O   0  0  0  0  0  0  0  0  0  0  0  0
  -22.4330  -12.0100   22.5240 H   0  0  0  0  0  0  0  0  0  0  0  0
  -21.1250  -13.1450   22.3570 H   0  0  0  0  0  0  0  0  0  0  0  0
  -25.3830  -15.2420   20.4010 N   0  0  0  0  0  0  0  0  0  0  0  0
  -24.6170  -15.8960   20.5270 H   0  0  0  0  0  0  0  0  0  0  0  0
  -26.2440  -15.7060   20.1270 H   0  0  0  0  0  0  0  0  0  0  0  0
  -29.1570  -24.1770   20.3960 C   0  0  0  0  0  0  0  0  0  0  0  0
  -30.0880  -24.5910   21.0940 O   0  0  0  0  0  0  0  0  0  0  0  0
  -28.1770  -25.2200   19.7810 C   0  0  0  0  0  2  0  0  0  0  0  0
  -28.3540  -26.6050   20.2160 O   0  0  0  0  0  0  0  0  0  0  0  0
  -24.6000  -31.9120   23.2610 C   0  0  0  0  0  0  0  0  0  0  0  0
  -27.2180  -27.4130   20.1650 C   0  0  0  0  0  0  0  0  0  0  0  0
  -23.3960  -30.5140   21.6210 C   0  0  0  0  0  3  0  0  0  0  0  0
  -24.8460  -28.9880   20.1830 C   0  0  0  0  0  0  0  0  0  0  0  0
  -25.9330  -30.8450   21.4420 C   0  0  0  0  0  2  0  0  0  0  0  0
  -26.0120  -29.4770   20.7860 C   0  0  0  0  0  0  0  0  0  0  0  0
  -27.1990  -28.6960   20.7780 C   0  0  0  0  0  3  0  0  0  0  0  0
  -26.0320  -26.9770   19.5250 C   0  0  0  0  0  3  0  0  0  0  0  0
  -24.8550  -27.7410   19.5480 C   0  0  0  0  0  3  0  0  0  0  0  0
  -23.6090  -29.8530   20.2360 C   0  0  0  0  0  2  0  0  0  0  0  0
  -24.6620  -31.1020   22.1680 N   0  0  0  0  0  0  0  0  0  0  0  0
  -23.5130  -32.2130   23.7720 O   0  0  0  0  0  0  0  0  0  0  0  0
  -22.7380  -29.4870   22.5730 C   0  0  0  0  0  0  0  0  0  0  0  0
  -21.4160  -29.2940   22.4330 N   0  0  0  0  0  0  0  0  0  0  0  0
  -23.4150  -28.8670   23.3970 O   0  0  0  0  0  0  0  0  0  0  0  0
  -20.9280  -29.8460   21.7410 H   0  0  0  0  0  0  0  0  0  0  0  0
  -18.0430  -28.0810   22.8960 C   0  0  0  0  0  0  0  0  0  0  0  0
  -20.5960  -28.3520   23.1950 C   0  0  0  0  0  3  0  0  0  0  0  0
  -20.7120  -26.9220   22.6180 C   0  0  0  0  0  2  0  0  0  0  0  0
  -19.6230  -26.5950   21.5910 C   0  0  0  0  0  2  0  0  0  0  0  0
  -18.2330  -26.7330   22.2210 C   0  0  0  0  0  2  0  0  0  0  0  0
  -19.1530  -28.8480   23.3400 C   0  0  0  0  0  0  0  0  0  0  0  0
  -18.9220  -30.1090   23.9300 C   0  0  0  0  0  3  0  0  0  0  0  0
  -17.6130  -30.6040   24.0820 C   0  0  0  0  0  3  0  0  0  0  0  0
  -16.5170  -29.8330   23.6570 C   0  0  0  0  0  3  0  0  0  0  0  0
  -16.7320  -28.5730   23.0690 C   0  0  0  0  0  3  0  0  0  0  0  0
  -25.8860  -32.5280   23.8960 C   0  0  0  0  0  3  0  0  0  0  0  0
  -26.3900  -31.7540   25.1760 C   0  0  1  0  0  0  0  0  0  0  0  0
  -25.2860  -31.5200   26.2320 C   0  0  0  0  0  1  0  0  0  0  0  0
  -26.9730  -30.3760   24.7890 C   0  0  0  0  0  1  0  0  0  0  0  0
  -27.5380  -32.5440   25.8490 C   0  0  0  0  0  1  0  0  0  0  0  0
  -25.5880  -33.9290   24.2230 N   0  0  0  0  0  0  0  0  0  0  0  0
  -25.9080  -34.9740   23.4500 C   0  0  0  0  0  0  0  0  0  0  0  0
  -26.5600  -34.8620   22.4080 O   0  0  0  0  0  0  0  0  0  0  0  0
  -25.0110  -34.0910   25.0350 H   0  0  0  0  0  0  0  0  0  0  0  0
  -24.1760  -36.7620   23.1090 C   0  0  0  0  0  1  0  0  0  0  0  0
  -25.4280  -36.3650   23.9040 C   0  0  0  0  0  3  0  0  0  0  0  0
  -27.5730  -37.2570   24.7000 C   0  0  0  0  0  1  0  0  0  0  0  0
  -26.4590  -37.4170   23.7690 N   0  0  0  0  0  0  0  0  0  0  0  0
  -26.0550  -38.3380   23.9140 H   0  0  0  0  0  0  0  0  0  0  0  0
  1  4  2  0
  2  7  1  0
  3  5  1  0
  4 10  1  0
  4  7  1  0
  5 51  1  0
  5  2  2  0
  6  1  1  0
  6  3  2  0
  7  8  2  0
  9  6  1  0
 10 12  1  0
 11 10  2  0
 12 21  1  0
 13 21  1  0
 14 19  1  0
 15 16  1  0
 15 14  1  0
 17 16  1  0
 17 26  1  0
 17 18  1  0
 19 13  1  0
 19 18  1  0
 20 13  2  0
 21 22  1  0
 23 24  2  0
 24 43  1  0
 25 24  1  0
 25 28  1  0
 26 27  1  0
 26 23  1  0
 27 25  2  0
 28 29  1  0
 29 30  2  0
 31 34  1  0
 31 30  1  0
 32 31  2  0
 33 32  1  0
 33 28  2  0
 34 35  1  0
 35 36  1  0
 36 37  2  0
 38 37  1  0
 38 42  1  0
 39 38  2  0
 40 35  2  0
 40 39  1  0
 41 40  1  0
 43 44  1  0
 44 47  1  0
 44 46  1  0
 45 43  2  0
 48 49  1  0
 48 23  1  0
 50 48  1  0
 51 52  2  0
 53 54  1  0
 53 51  1  0
 55 66  2  0
 56 54  1  0
 56 61  1  0
 57 65  1  0
 57 67  1  0
 58 64  1  0
 58 60  1  0
 59 65  1  0
 60 59  1  0
 61 60  2  0
 62 63  1  0
 62 56  2  0
 63 58  2  0
 64 57  1  0
 65 55  1  0
 67 69  2  0
 68 67  1  0
 70 68  1  0
 71 80  2  0
 71 76  1  0
 72 68  1  0
 72 76  1  0
 73 72  1  0
 74 75  1  0
 74 73  1  0
 75 71  1  0
 76 77  2  0
 77 78  1  0
 79 78  2  0
 80 79  1  0
 81 55  1  0
 81 86  1  0
 81 82  1  0
 82 85  1  1
 82 83  1  0
 84 82  1  0
 86 89  1  0
 87 91  1  0
 87 86  1  0
 88 87  2  0
 91 90  1  0
 93 91  1  0
 93 94  1  0
 93 92  1  0
M  ISO  4  13 100  21 100  53 101  54 101
M  END
>  <TORSDO>  (9) 
F 20

>  <SCORE>  (9) 
-14.495

>  <name>  (9) 
8

>  <ligand_id>  (9) 
8

>  <original_smiles>  (9) 
[H]c1c([H])c([H])c2c(c1[H])C([H])([H])C([H])([H])C([H])([H])C2([H])N([H])C(=O)C1([H])N(C(=O)C([H])(N([H])C(=O)C([H])(N([H])C([H])([H])[H])C([H])([H])[H])C(C([H])([H])[H])(C([H])([H])[H])C([H])([H])[H])C([H])([H])c2c([H])c(OC([H])([H])C(=O)c3c([H])c(F)c([H])c(C(=O)C([H])([H])N([H])C(=O)N4C([H])([H])C([H])([H])C([H])([H])C([H])(n5nc(-c6c([H])c([H])c(Oc7c([H])c([H])c(F)c([H])c7F)c([H])c6[H])c(C(=O)N([H])[H])c5N([H])[H])C4([H])[H])c(=O)c3[H])c([H])c([H])c2C1([H])[H]

>  <smiles>  (9) 
[H]c1c([H])c([H])c2c(c1[H])C([H])([H])C([H])([H])C([H])([H])C2([H])N([H])C(=O)C1([H])N(C(=O)C([H])(N([H])C(=O)C([H])(N([H])C([H])([H])[H])C([H])([H])[H])C(C([H])([H])[H])(C([H])([H])[H])C([H])([H])[H])C([H])([H])c2c([H])c(OC([H])([H])C(=O)c3c([H])c(F)c([H])c(C(=O)C([H])([H])N([H])C(=O)N4C([H])([H])C([H])([H])C([H])([H])C([H])(n5nc(-c6c([H])c([H])c(Oc7c([H])c([H])c(F)c([H])c7F)c([H])c6[H])c(C(=O)N([H])[H])c5N([H])[H])C4([H])[H])c(=O)c3[H])c([H])c([H])c2C1([H])[H]

$$$$
9:0:0
     RDKit          3D

 91100  0  0  1  0  0  0  0  0999 V2000
  -29.8400  -23.6900   19.6300 C   0  0  0  0  0  2  0  0  0  0  0  0
  -29.8500  -22.1650   19.3970 C   0  0  0  0  0  2  0  0  0  0  0  0
  -30.0370  -20.9620   21.6740 C   0  0  0  0  0  2  0  0  0  0  0  0
  -28.1970  -20.3040   20.1610 C   0  0  0  0  0  2  0  0  0  0  0  0
  -28.2320  -22.7320   21.1090 C   0  0  0  0  0  2  0  0  0  0  0  0
  -30.7850  -19.6460   21.2990 C   0  0  0  0  0  2  0  0  0  0  0  0
  -28.9730  -18.9920   19.8130 C   0  0  0  0  0  2  0  0  0  0  0  0
  -28.4590  -23.9900   20.2160 C   0  0  0  0  0  3  0  0  0  0  0  0
  -29.0820  -21.5180   20.5780 C   0  0  2  0  0  0  0  0  0  0  0  0
  -29.8760  -18.5230   20.9070 N   0  0  1  0  0  4  0  0  0  0  0  0
  -29.3050  -18.3320   21.7170 H   0  0  0  0  0  0  0  0  0  0  0  0
  -28.3030  -25.3720   20.9560 C   0  0  0  0  0  2  0  0  0  0  0  0
  -28.3860  -26.5980   20.1740 O   0  0  0  0  0  0  0  0  0  0  0  0
  -24.6280  -31.8960   23.2280 C   0  0  0  0  0  0  0  0  0  0  0  0
  -27.2470  -27.3900   20.1730 C   0  0  0  0  0  0  0  0  0  0  0  0
  -23.4150  -30.4780   21.6080 C   0  0  0  0  0  3  0  0  0  0  0  0
  -24.8620  -28.9290   20.1810 C   0  0  0  0  0  0  0  0  0  0  0  0
  -25.9450  -30.8250   21.3980 C   0  0  0  0  0  2  0  0  0  0  0  0
  -26.0280  -29.4490   20.7590 C   0  0  0  0  0  0  0  0  0  0  0  0
  -27.2270  -28.6910   20.7440 C   0  0  0  0  0  3  0  0  0  0  0  0
  -26.0650  -26.8960   19.5860 C   0  0  0  0  0  3  0  0  0  0  0  0
  -24.8790  -27.6550   19.5870 C   0  0  0  0  0  3  0  0  0  0  0  0
  -23.6190  -29.7910   20.2310 C   0  0  0  0  0  2  0  0  0  0  0  0
  -24.6830  -31.0780   22.1370 N   0  0  0  0  0  0  0  0  0  0  0  0
  -23.5440  -32.1940   23.7470 O   0  0  0  0  0  0  0  0  0  0  0  0
  -22.7680  -29.4630   22.5780 C   0  0  0  0  0  0  0  0  0  0  0  0
  -21.4430  -29.2760   22.4570 N   0  0  0  0  0  0  0  0  0  0  0  0
  -23.4540  -28.8450   23.3960 O   0  0  0  0  0  0  0  0  0  0  0  0
  -20.9490  -29.8260   21.7680 H   0  0  0  0  0  0  0  0  0  0  0  0
  -18.0750  -28.0610   22.9640 C   0  0  0  0  0  0  0  0  0  0  0  0
  -20.6310  -28.3380   23.2340 C   0  0  0  0  0  3  0  0  0  0  0  0
  -20.7420  -26.9040   22.6680 C   0  0  0  0  0  2  0  0  0  0  0  0
  -19.6430  -26.5670   21.6560 C   0  0  0  0  0  2  0  0  0  0  0  0
  -18.2600  -26.7080   22.3000 C   0  0  0  0  0  2  0  0  0  0  0  0
  -19.1880  -28.8340   23.3890 C   0  0  0  0  0  0  0  0  0  0  0  0
  -18.9610  -30.1000   23.9700 C   0  0  0  0  0  3  0  0  0  0  0  0
  -17.6540  -30.5950   24.1310 C   0  0  0  0  0  3  0  0  0  0  0  0
  -16.5540  -29.8200   23.7230 C   0  0  0  0  0  3  0  0  0  0  0  0
  -16.7660  -28.5550   23.1450 C   0  0  0  0  0  3  0  0  0  0  0  0
  -25.9170  -32.5220   23.8480 C   0  0  0  0  0  3  0  0  0  0  0  0
  -26.4430  -31.7490   25.1200 C   0  0  1  0  0  0  0  0  0  0  0  0
  -25.3570  -31.5110   26.1950 C   0  0  0  0  0  1  0  0  0  0  0  0
  -27.0250  -30.3730   24.7240 C   0  0  0  0  0  1  0  0  0  0  0  0
  -27.5980  -32.5440   25.7750 C   0  0  0  0  0  1  0  0  0  0  0  0
  -25.6110  -33.9200   24.1820 N   0  0  0  0  0  0  0  0  0  0  0  0
  -25.9310  -34.9710   23.4170 C   0  0  0  0  0  0  0  0  0  0  0  0
  -26.5880  -34.8670   22.3780 O   0  0  0  0  0  0  0  0  0  0  0  0
  -25.0260  -34.0740   24.9900 H   0  0  0  0  0  0  0  0  0  0  0  0
  -24.1910  -36.7560   23.0820 C   0  0  0  0  0  1  0  0  0  0  0  0
  -25.4440  -36.3590   23.8770 C   0  0  0  0  0  3  0  0  0  0  0  0
  -27.5880  -37.2510   24.6760 C   0  0  0  0  0  1  0  0  0  0  0  0
  -26.4720  -37.4150   23.7480 N   0  0  0  0  0  0  0  0  0  0  0  0
  -26.0650  -38.3330   23.9000 H   0  0  0  0  0  0  0  0  0  0  0  0
  -30.6280  -17.2460   20.5870 C   0  0  0  0  0  2  0  0  0  0  0  0
  -29.9540  -15.8780   20.9910 C   0  0  0  0  0  2  0  0  0  0  0  0
  -30.6960  -14.5950   20.4730 C   0  0  0  0  0  0  0  0  0  0  0  0
  -30.4340  -12.4030   19.3440 C   0  0  0  0  0  2  0  0  0  0  0  0
  -29.5020  -12.5880   18.1270 C   0  0  0  0  0  2  0  0  0  0  0  0
  -28.0250  -12.4370   18.5450 C   0  0  0  0  0  2  0  0  0  0  0  0
  -27.6710  -13.2820   19.7980 C   0  0  0  0  0  3  0  0  0  0  0  0
  -28.7220  -13.0980   20.9170 C   0  0  0  0  0  2  0  0  0  0  0  0
  -30.0450  -13.4010   20.3580 N   0  0  0  0  0  0  0  0  0  0  0  0
  -31.8470  -14.7310   20.0460 O   0  0  0  0  0  0  0  0  0  0  0  0
  -25.2710  -13.8850   20.4930 C   0  0  0  0  0  0  0  0  0  0  0  0
  -24.2020  -13.1130   20.8590 C   0  0  0  0  0  0  0  0  0  0  0  0
  -24.6660  -11.7620   20.8410 C   0  0  0  0  0  0  0  0  0  0  0  0
  -26.3180  -13.0050   20.2730 N   0  0  0  0  0  0  0  0  0  0  0  0
  -25.9590  -11.7230   20.5440 N   0  0  0  0  0  0  0  0  0  0  0  0
  -23.9400  -10.5010   21.0340 C   0  0  0  0  0  0  0  0  0  0  0  0
  -24.3760   -9.5330   21.9650 C   0  0  0  0  0  3  0  0  0  0  0  0
  -23.6510   -8.3340   22.1440 C   0  0  0  0  0  3  0  0  0  0  0  0
  -22.4750   -8.0970   21.3920 C   0  0  0  0  0  0  0  0  0  0  0  0
  -22.0590   -9.0540   20.4500 C   0  0  0  0  0  3  0  0  0  0  0  0
  -22.7840  -10.2430   20.2690 C   0  0  0  0  0  3  0  0  0  0  0  0
  -21.7220   -6.9520   21.4810 O   0  0  0  0  0  0  0  0  0  0  0  0
  -21.6870   -6.2000   22.6280 C   0  0  0  0  0  0  0  0  0  0  0  0
  -21.2850   -6.7480   23.8660 C   0  0  0  0  0  3  0  0  0  0  0  0
  -21.1980   -5.9230   25.0060 C   0  0  0  0  0  3  0  0  0  0  0  0
  -21.5010   -4.5530   24.9080 C   0  0  0  0  0  0  0  0  0  0  0  0
  -21.8960   -4.0040   23.6750 C   0  0  0  0  0  3  0  0  0  0  0  0
  -21.9860   -4.8250   22.5380 C   0  0  0  0  0  0  0  0  0  0  0  0
  -22.3460   -4.2880   21.3480 F   0  0  0  0  0  0  0  0  0  0  0  0
  -21.4090   -3.7580   26.0000 F   0  0  0  0  0  0  0  0  0  0  0  0
  -22.8010  -13.5900   21.1150 C   0  0  0  0  0  0  0  0  0  0  0  0
  -22.0660  -12.8990   21.9790 N   0  0  0  0  0  0  0  0  0  0  0  0
  -22.3660  -14.6120   20.5840 O   0  0  0  0  0  0  0  0  0  0  0  0
  -22.4300  -12.0720   22.4290 H   0  0  0  0  0  0  0  0  0  0  0  0
  -21.1260  -13.2000   22.1930 H   0  0  0  0  0  0  0  0  0  0  0  0
  -25.4350  -15.2550   20.3070 N   0  0  0  0  0  0  0  0  0  0  0  0
  -24.6650  -15.9070   20.4010 H   0  0  0  0  0  0  0  0  0  0  0  0
  -26.2830  -15.6890   19.9650 H   0  0  0  0  0  0  0  0  0  0  0  0
  1  8  1  0
  2  1  1  0
  9  4  1  6
  6  3  1  0
  7  4  1  0
  7 10  1  0
  8 12  1  0
  8  5  1  0
  9  2  1  0
  9  5  1  0
  9  3  1  0
 10  6  1  0
 10 11  1  1
 13 12  1  0
 14 25  2  0
 15 13  1  0
 15 20  1  0
 16 24  1  0
 16 26  1  0
 17 23  1  0
 17 19  1  0
 18 24  1  0
 19 18  1  0
 20 19  2  0
 21 22  1  0
 21 15  2  0
 22 17  2  0
 23 16  1  0
 24 14  1  0
 26 28  2  0
 27 26  1  0
 29 27  1  0
 30 39  2  0
 30 35  1  0
 31 27  1  0
 31 35  1  0
 32 31  1  0
 33 34  1  0
 33 32  1  0
 34 30  1  0
 35 36  2  0
 36 37  1  0
 38 37  2  0
 39 38  1  0
 40 14  1  0
 40 45  1  0
 40 41  1  0
 41 44  1  1
 41 42  1  0
 43 41  1  0
 45 48  1  0
 46 50  1  0
 46 45  1  0
 47 46  2  0
 50 49  1  0
 52 50  1  0
 52 53  1  0
 52 51  1  0
 54 10  1  0
 54 55  1  0
 56 55  1  0
 57 62  1  0
 58 59  1  0
 58 57  1  0
 60 59  1  0
 60 67  1  0
 60 61  1  0
 62 56  1  0
 62 61  1  0
 63 56  2  0
 64 65  2  0
 65 84  1  0
 66 65  1  0
 66 69  1  0
 67 64  1  0
 67 68  1  0
 68 66  2  0
 69 70  1  0
 70 71  2  0
 72 75  1  0
 72 71  1  0
 73 72  2  0
 74 73  1  0
 74 69  2  0
 75 76  1  0
 76 77  1  0
 77 78  2  0
 79 78  1  0
 79 83  1  0
 80 79  2  0
 81 76  2  0
 81 80  1  0
 82 81  1  0
 84 85  1  0
 85 88  1  0
 85 87  1  0
 86 84  2  0
 89 90  1  0
 89 64  1  0
 91 89  1  0
M  ISO  4  12 101  13 101  55 100  56 100
M  END
>  <TORSDO>  (10) 
F 19

>  <SCORE>  (10) 
-14.506

>  <name>  (10) 
9

>  <ligand_id>  (10) 
9

>  <original_smiles>  (10) 
[H]c1c([H])c([H])c2c(c1[H])C([H])([H])C([H])([H])C([H])([H])C2([H])N([H])C(=O)C1([H])N(C(=O)C([H])(N([H])C(=O)C([H])(N([H])C([H])([H])[H])C([H])([H])[H])C(C([H])([H])[H])(C([H])([H])[H])C([H])([H])[H])C([H])([H])c2c([H])c(OC([H])([H])C3([H])C([H])([H])C([H])([H])C4(C3([H])[H])C([H])([H])C([H])([H])[N+]([H])(C([H])([H])C([H])([H])C(=O)N3C([H])([H])C([H])([H])C([H])([H])C([H])(n5nc(-c6c([H])c([H])c(Oc7c([H])c([H])c(F)c([H])c7F)c([H])c6[H])c(C(=O)N([H])[H])c5N([H])[H])C3([H])[H])C([H])([H])C4([H])[H])c([H])c([H])c2C1([H])[H]

>  <smiles>  (10) 
[H]c1c([H])c([H])c2c(c1[H])C([H])([H])C([H])([H])C([H])([H])C2([H])N([H])C(=O)C1([H])N(C(=O)C([H])(N([H])C(=O)C([H])(N([H])C([H])([H])[H])C([H])([H])[H])C(C([H])([H])[H])(C([H])([H])[H])C([H])([H])[H])C([H])([H])c2c([H])c(OC([H])([H])C3([H])C([H])([H])C([H])([H])C4(C3([H])[H])C([H])([H])C([H])([H])[N+]([H])(C([H])([H])C([H])([H])C(=O)N3C([H])([H])C([H])([H])C([H])([H])C([H])(n5nc(-c6c([H])c([H])c(Oc7c([H])c([H])c(F)c([H])c7F)c([H])c6[H])c(C(=O)N([H])[H])c5N([H])[H])C3([H])[H])C([H])([H])C4([H])[H])c([H])c([H])c2C1([H])[H]

$$$$
10:0:0
     RDKit          3D

 93102  0  0  1  0  0  0  0  0999 V2000
  -29.9870  -24.3950   17.6480 C   0  0  0  0  0  2  0  0  0  0  0  0
  -30.5500  -23.3730   18.6520 C   0  0  0  0  0  2  0  0  0  0  0  0
  -29.6160  -25.7210   18.3310 C   0  0  0  0  0  2  0  0  0  0  0  0
  -29.2610  -24.4910   20.5210 C   0  0  0  0  0  2  0  0  0  0  0  0
  -29.5760  -23.1390   19.8300 C   0  0  0  0  0  3  0  0  0  0  0  0
  -28.6540  -25.4970   19.5110 C   0  0  0  0  0  3  0  0  0  0  0  0
  -30.0960  -22.1010   20.7620 N   0  0  0  0  0  4  0  0  0  0  0  0
  -29.7230  -22.2730   21.6820 H   0  0  0  0  0  0  0  0  0  0  0  0
  -31.0990  -22.1770   20.8200 H   0  0  0  0  0  0  0  0  0  0  0  0
  -29.7100  -20.7200   20.3740 C   0  0  0  0  0  2  0  0  0  0  0  0
  -30.4680  -19.5840   21.1100 C   0  0  0  0  0  2  0  0  0  0  0  0
  -29.3320  -16.3700   19.3550 C   0  0  0  0  0  2  0  0  0  0  0  0
  -29.7260  -17.8440   19.3540 C   0  0  0  0  0  2  0  0  0  0  0  0
  -30.4950  -16.9540   21.4230 C   0  0  0  0  0  2  0  0  0  0  0  0
  -29.7860  -15.7710   20.7120 C   0  0  0  0  0  3  0  0  0  0  0  0
  -29.8170  -18.2060   20.8340 C   0  0  0  0  0  3  0  0  0  0  0  0
  -30.6290  -14.4870   20.4740 C   0  0  0  0  0  0  0  0  0  0  0  0
  -30.3760  -12.3020   19.3790 C   0  0  0  0  0  2  0  0  0  0  0  0
  -29.4410  -12.5150   18.1680 C   0  0  0  0  0  2  0  0  0  0  0  0
  -27.9590  -12.3810   18.5810 C   0  0  0  0  0  2  0  0  0  0  0  0
  -27.6140  -13.2100   19.8450 C   0  0  0  0  0  3  0  0  0  0  0  0
  -28.6660  -12.9810   20.9550 C   0  0  0  0  0  2  0  0  0  0  0  0
  -29.9960  -13.2830   20.4060 N   0  0  0  0  0  0  0  0  0  0  0  0
  -31.8000  -14.6340   20.1100 O   0  0  0  0  0  0  0  0  0  0  0  0
  -25.2120  -13.8380   20.5310 C   0  0  0  0  0  0  0  0  0  0  0  0
  -24.1390  -13.0720   20.8960 C   0  0  0  0  0  0  0  0  0  0  0  0
  -24.5960  -11.7200   20.8780 C   0  0  0  0  0  0  0  0  0  0  0  0
  -26.2560  -12.9490   20.3160 N   0  0  0  0  0  0  0  0  0  0  0  0
  -25.8870  -11.6720   20.5810 N   0  0  0  0  0  0  0  0  0  0  0  0
  -23.8670  -10.4610   21.0710 C   0  0  0  0  0  0  0  0  0  0  0  0
  -24.3080   -9.4860   21.9930 C   0  0  0  0  0  3  0  0  0  0  0  0
  -23.5800   -8.2910   22.1720 C   0  0  0  0  0  3  0  0  0  0  0  0
  -22.3960   -8.0620   21.4290 C   0  0  0  0  0  0  0  0  0  0  0  0
  -21.9750   -9.0250   20.4960 C   0  0  0  0  0  3  0  0  0  0  0  0
  -22.7040  -10.2120   20.3150 C   0  0  0  0  0  3  0  0  0  0  0  0
  -21.6400   -6.9180   21.5190 O   0  0  0  0  0  0  0  0  0  0  0  0
  -21.6210   -6.1560   22.6600 C   0  0  0  0  0  0  0  0  0  0  0  0
  -21.2490   -6.6950   23.9110 C   0  0  0  0  0  3  0  0  0  0  0  0
  -21.1760   -5.8590   25.0430 C   0  0  0  0  0  3  0  0  0  0  0  0
  -21.4640   -4.4870   24.9250 C   0  0  0  0  0  0  0  0  0  0  0  0
  -21.8300   -3.9470   23.6800 C   0  0  0  0  0  3  0  0  0  0  0  0
  -21.9050   -4.7790   22.5490 C   0  0  0  0  0  0  0  0  0  0  0  0
  -22.2370   -4.2510   21.3470 F   0  0  0  0  0  0  0  0  0  0  0  0
  -21.3870   -3.6820   26.0120 F   0  0  0  0  0  0  0  0  0  0  0  0
  -22.7390  -13.5540   21.1560 C   0  0  0  0  0  0  0  0  0  0  0  0
  -22.0060  -12.8630   22.0230 N   0  0  0  0  0  0  0  0  0  0  0  0
  -22.3050  -14.5760   20.6260 O   0  0  0  0  0  0  0  0  0  0  0  0
  -22.3710  -12.0360   22.4710 H   0  0  0  0  0  0  0  0  0  0  0  0
  -21.0680  -13.1660   22.2410 H   0  0  0  0  0  0  0  0  0  0  0  0
  -25.3840  -15.2070   20.3480 N   0  0  0  0  0  0  0  0  0  0  0  0
  -24.6220  -15.8700   20.4490 H   0  0  0  0  0  0  0  0  0  0  0  0
  -26.2470  -15.6420   20.0490 H   0  0  0  0  0  0  0  0  0  0  0  0
  -28.4470  -26.7650   20.1450 O   0  0  0  0  0  0  0  0  0  0  0  0
  -24.6230  -31.8860   23.2250 C   0  0  0  0  0  0  0  0  0  0  0  0
  -27.2360  -27.4340   20.1090 C   0  0  0  0  0  0  0  0  0  0  0  0
  -23.3970  -30.4800   21.6020 C   0  0  0  0  0  3  0  0  0  0  0  0
  -24.8310  -28.9420   20.1600 C   0  0  0  0  0  0  0  0  0  0  0  0
  -25.9230  -30.8300   21.3810 C   0  0  0  0  0  2  0  0  0  0  0  0
  -25.9950  -29.4610   20.7380 C   0  0  0  0  0  0  0  0  0  0  0  0
  -27.1910  -28.7120   20.7130 C   0  0  0  0  0  3  0  0  0  0  0  0
  -26.0450  -26.9290   19.5270 C   0  0  0  0  0  3  0  0  0  0  0  0
  -24.8510  -27.6740   19.5560 C   0  0  0  0  0  3  0  0  0  0  0  0
  -23.5900  -29.8030   20.2200 C   0  0  0  0  0  2  0  0  0  0  0  0
  -24.6670  -31.0770   22.1290 N   0  0  0  0  0  0  0  0  0  0  0  0
  -23.5440  -32.1830   23.7540 O   0  0  0  0  0  0  0  0  0  0  0  0
  -22.7550  -29.4590   22.5680 C   0  0  0  0  0  0  0  0  0  0  0  0
  -21.4310  -29.2710   22.4440 N   0  0  0  0  0  0  0  0  0  0  0  0
  -23.4430  -28.8400   23.3830 O   0  0  0  0  0  0  0  0  0  0  0  0
  -20.9370  -29.8240   21.7570 H   0  0  0  0  0  0  0  0  0  0  0  0
  -18.0650  -28.0520   22.9350 C   0  0  0  0  0  0  0  0  0  0  0  0
  -20.6200  -28.3320   23.2180 C   0  0  0  0  0  3  0  0  0  0  0  0
  -20.7370  -26.8980   22.6510 C   0  0  0  0  0  2  0  0  0  0  0  0
  -19.6420  -26.5590   21.6340 C   0  0  0  0  0  2  0  0  0  0  0  0
  -18.2570  -26.6990   22.2700 C   0  0  0  0  0  2  0  0  0  0  0  0
  -19.1750  -28.8250   23.3650 C   0  0  0  0  0  0  0  0  0  0  0  0
  -18.9440  -30.0920   23.9430 C   0  0  0  0  0  3  0  0  0  0  0  0
  -17.6350  -30.5850   24.0990 C   0  0  0  0  0  3  0  0  0  0  0  0
  -16.5390  -29.8080   23.6850 C   0  0  0  0  0  3  0  0  0  0  0  0
  -16.7550  -28.5430   23.1090 C   0  0  0  0  0  3  0  0  0  0  0  0
  -25.9200  -32.5000   23.8430 C   0  0  0  0  0  3  0  0  0  0  0  0
  -26.4520  -31.7140   25.1040 C   0  0  1  0  0  0  0  0  0  0  0  0
  -25.3710  -31.4660   26.1810 C   0  0  0  0  0  1  0  0  0  0  0  0
  -27.0290  -30.3410   24.6870 C   0  0  0  0  0  1  0  0  0  0  0  0
  -27.6120  -32.4990   25.7610 C   0  0  0  0  0  1  0  0  0  0  0  0
  -25.6220  -33.8960   24.1910 N   0  0  0  0  0  0  0  0  0  0  0  0
  -25.9370  -34.9520   23.4280 C   0  0  0  0  0  0  0  0  0  0  0  0
  -26.5840  -34.8540   22.3830 O   0  0  0  0  0  0  0  0  0  0  0  0
  -25.0450  -34.0480   25.0040 H   0  0  0  0  0  0  0  0  0  0  0  0
  -24.1920  -36.7350   23.1260 C   0  0  0  0  0  1  0  0  0  0  0  0
  -25.4560  -36.3350   23.9030 C   0  0  0  0  0  3  0  0  0  0  0  0
  -27.6100  -37.2240   24.6770 C   0  0  0  0  0  1  0  0  0  0  0  0
  -26.4800  -37.3930   23.7670 N   0  0  0  0  0  0  0  0  0  0  0  0
  -26.0750  -38.3110   23.9300 H   0  0  0  0  0  0  0  0  0  0  0  0
  1  3  1  0
  1  2  1  0
  2  5  1  0
  3  6  1  0
  5  4  1  0
  5  7  1  0
  6 53  1  0
  6  4  1  0
  7  9  1  0
  7  8  1  0
 10  7  1  0
 10 11  1  0
 12 15  1  0
 13 12  1  0
 13 16  1  0
 15 17  1  0
 15 14  1  0
 16 11  1  0
 16 14  1  0
 18 23  1  0
 19 20  1  0
 19 18  1  0
 21 20  1  0
 21 28  1  0
 21 22  1  0
 23 17  1  0
 23 22  1  0
 24 17  2  0
 25 26  2  0
 26 45  1  0
 27 26  1  0
 27 30  1  0
 28 25  1  0
 28 29  1  0
 29 27  2  0
 30 31  1  0
 31 32  2  0
 33 36  1  0
 33 32  1  0
 34 33  2  0
 35 34  1  0
 35 30  2  0
 36 37  1  0
 37 38  1  0
 38 39  2  0
 40 39  1  0
 40 44  1  0
 41 40  2  0
 42 37  2  0
 42 41  1  0
 43 42  1  0
 45 46  1  0
 46 49  1  0
 46 48  1  0
 47 45  2  0
 50 51  1  0
 50 25  1  0
 52 50  1  0
 54 65  2  0
 55 53  1  0
 55 60  1  0
 56 64  1  0
 56 66  1  0
 57 63  1  0
 57 59  1  0
 58 64  1  0
 59 58  1  0
 60 59  2  0
 61 62  1  0
 61 55  2  0
 62 57  2  0
 63 56  1  0
 64 54  1  0
 66 68  2  0
 67 66  1  0
 69 67  1  0
 70 79  2  0
 70 75  1  0
 71 67  1  0
 71 75  1  0
 72 71  1  0
 73 74  1  0
 73 72  1  0
 74 70  1  0
 75 76  2  0
 76 77  1  0
 78 77  2  0
 79 78  1  0
 80 54  1  0
 80 85  1  0
 80 81  1  0
 81 84  1  1
 81 82  1  0
 83 81  1  0
 85 88  1  0
 86 90  1  0
 86 85  1  0
 87 86  2  0
 90 89  1  0
 92 90  1  0
 92 93  1  0
 92 91  1  0
M  ISO  4   6 101  15 100  17 100  53 101
M  END
>  <TORSDO>  (11) 
F 20

>  <SCORE>  (11) 
-13.909

>  <name>  (11) 
10

>  <ligand_id>  (11) 
10

>  <original_smiles>  (11) 
[H]c1c([H])c([H])c2c(c1[H])C([H])([H])C([H])([H])C([H])([H])C2([H])N([H])C(=O)C1([H])N(C(=O)C([H])(N([H])C(=O)C([H])(N([H])C([H])([H])[H])C([H])([H])[H])C(C([H])([H])[H])(C([H])([H])[H])C([H])([H])[H])C([H])([H])c2c([H])c(OC3([H])C([H])([H])C([H])([H])C([H])([H])C([H])([N+]([H])([H])C([H])([H])C([H])([H])C4([H])C([H])([H])C([H])([H])C([H])(C(=O)N5C([H])([H])C([H])([H])C([H])([H])C([H])(n6nc(-c7c([H])c([H])c(Oc8c([H])c([H])c(F)c([H])c8F)c([H])c7[H])c(C(=O)N([H])[H])c6N([H])[H])C5([H])[H])C4([H])[H])C3([H])[H])c([H])c([H])c2C1([H])[H]

>  <smiles>  (11) 
[H]c1c([H])c([H])c2c(c1[H])C([H])([H])C([H])([H])C([H])([H])C2([H])N([H])C(=O)C1([H])N(C(=O)C([H])(N([H])C(=O)C([H])(N([H])C([H])([H])[H])C([H])([H])[H])C(C([H])([H])[H])(C([H])([H])[H])C([H])([H])[H])C([H])([H])c2c([H])c(OC3([H])C([H])([H])C([H])([H])C([H])([H])C([H])([N+]([H])([H])C([H])([H])C([H])([H])C4([H])C([H])([H])C([H])([H])C([H])(C(=O)N5C([H])([H])C([H])([H])C([H])([H])C([H])(n6nc(-c7c([H])c([H])c(Oc8c([H])c([H])c(F)c([H])c8F)c([H])c7[H])c(C(=O)N([H])[H])c6N([H])[H])C5([H])[H])C4([H])[H])C3([H])[H])c([H])c([H])c2C1([H])[H]

$$$$
11:0:0
     RDKit          3D

 92100  0  0  1  0  0  0  0  0999 V2000
  -27.9110  -21.2780   17.9140 C   0  0  0  0  0  2  0  0  0  0  0  0
  -28.1600  -20.0860   18.8480 C   0  0  0  0  0  2  0  0  0  0  0  0
  -27.5980  -22.5580   18.7070 C   0  0  0  0  0  2  0  0  0  0  0  0
  -28.9590  -21.7930   20.5440 C   0  0  0  0  0  2  0  0  0  0  0  0
  -29.2910  -20.4240   19.8430 C   0  0  0  0  0  3  0  0  0  0  0  0
  -28.7140  -22.9070   19.5960 N   0  0  0  0  0  0  0  0  0  0  0  0
  -29.5550  -19.3270   20.8290 N   0  0  0  0  0  4  0  0  0  0  0  0
  -28.8450  -19.3730   21.5430 H   0  0  0  0  0  0  0  0  0  0  0  0
  -30.4340  -19.5320   21.2770 H   0  0  0  0  0  0  0  0  0  0  0  0
  -29.5950  -17.9140   20.3310 C   0  0  0  0  0  2  0  0  0  0  0  0
  -30.1970  -16.9060   21.3620 C   0  0  0  0  0  2  0  0  0  0  0  0
  -30.6220  -14.5050   20.5630 C   0  0  0  0  0  0  0  0  0  0  0  0
  -30.3800  -12.3310   19.4050 C   0  0  0  0  0  2  0  0  0  0  0  0
  -29.4400  -12.5110   18.1930 C   0  0  0  0  0  2  0  0  0  0  0  0
  -27.9610  -12.3700   18.6100 C   0  0  0  0  0  2  0  0  0  0  0  0
  -27.6100  -13.2070   19.8700 C   0  0  0  0  0  3  0  0  0  0  0  0
  -28.6570  -12.9820   20.9840 C   0  0  0  0  0  2  0  0  0  0  0  0
  -29.9810  -13.3100   20.4270 N   0  0  0  0  0  0  0  0  0  0  0  0
  -31.7480  -14.7230   20.1110 O   0  0  0  0  0  0  0  0  0  0  0  0
  -29.8710  -15.4870   21.1050 N   0  0  0  0  0  0  0  0  0  0  0  0
  -28.9610  -15.1840   21.4200 H   0  0  0  0  0  0  0  0  0  0  0  0
  -25.2020  -13.8160   20.5510 C   0  0  0  0  0  0  0  0  0  0  0  0
  -24.1310  -13.0440   20.9130 C   0  0  0  0  0  0  0  0  0  0  0  0
  -24.5950  -11.6940   20.8950 C   0  0  0  0  0  0  0  0  0  0  0  0
  -26.2510  -12.9340   20.3350 N   0  0  0  0  0  0  0  0  0  0  0  0
  -25.8880  -11.6540   20.5990 N   0  0  0  0  0  0  0  0  0  0  0  0
  -23.8680  -10.4310   21.0820 C   0  0  0  0  0  0  0  0  0  0  0  0
  -24.3040   -9.4580   22.0090 C   0  0  0  0  0  3  0  0  0  0  0  0
  -23.5780   -8.2610   22.1830 C   0  0  0  0  0  3  0  0  0  0  0  0
  -22.4010   -8.0280   21.4320 C   0  0  0  0  0  0  0  0  0  0  0  0
  -21.9840   -8.9910   20.4950 C   0  0  0  0  0  3  0  0  0  0  0  0
  -22.7110  -10.1790   20.3190 C   0  0  0  0  0  3  0  0  0  0  0  0
  -21.6460   -6.8840   21.5170 O   0  0  0  0  0  0  0  0  0  0  0  0
  -21.6160   -6.1240   22.6600 C   0  0  0  0  0  0  0  0  0  0  0  0
  -21.2230   -6.6650   23.9030 C   0  0  0  0  0  3  0  0  0  0  0  0
  -21.1400   -5.8330   25.0370 C   0  0  0  0  0  3  0  0  0  0  0  0
  -21.4380   -4.4610   24.9300 C   0  0  0  0  0  0  0  0  0  0  0  0
  -21.8240   -3.9210   23.6910 C   0  0  0  0  0  3  0  0  0  0  0  0
  -21.9100   -4.7500   22.5590 C   0  0  0  0  0  0  0  0  0  0  0  0
  -22.2610   -4.2190   21.3630 F   0  0  0  0  0  0  0  0  0  0  0  0
  -21.3500   -3.6610   26.0170 F   0  0  0  0  0  0  0  0  0  0  0  0
  -22.7310  -13.5220   21.1680 C   0  0  0  0  0  0  0  0  0  0  0  0
  -21.9950  -12.8280   22.0320 N   0  0  0  0  0  0  0  0  0  0  0  0
  -22.2960  -14.5440   20.6400 O   0  0  0  0  0  0  0  0  0  0  0  0
  -22.3580  -12.0010   22.4820 H   0  0  0  0  0  0  0  0  0  0  0  0
  -21.0550  -13.1320   22.2470 H   0  0  0  0  0  0  0  0  0  0  0  0
  -25.3640  -15.1860   20.3650 N   0  0  0  0  0  0  0  0  0  0  0  0
  -24.5860  -15.8320   20.4470 H   0  0  0  0  0  0  0  0  0  0  0  0
  -26.2060  -15.6230   20.0130 H   0  0  0  0  0  0  0  0  0  0  0  0
  -28.4110  -24.1760   20.3030 C   0  0  0  0  0  2  0  0  0  0  0  0
  -28.5710  -25.4560   19.4220 C   0  0  0  0  0  2  0  0  0  0  0  0
  -28.4110  -26.6990   20.1440 O   0  0  0  0  0  0  0  0  0  0  0  0
  -24.5870  -31.8800   23.2400 C   0  0  0  0  0  0  0  0  0  0  0  0
  -27.2140  -27.4000   20.1420 C   0  0  0  0  0  0  0  0  0  0  0  0
  -23.3740  -30.4770   21.6070 C   0  0  0  0  0  3  0  0  0  0  0  0
  -24.8180  -28.9300   20.1790 C   0  0  0  0  0  0  0  0  0  0  0  0
  -25.9040  -30.8150   21.4090 C   0  0  0  0  0  2  0  0  0  0  0  0
  -25.9800  -29.4430   20.7630 C   0  0  0  0  0  0  0  0  0  0  0  0
  -27.1760  -28.6840   20.7430 C   0  0  0  0  0  3  0  0  0  0  0  0
  -26.0200  -26.8970   19.5730 C   0  0  0  0  0  3  0  0  0  0  0  0
  -24.8330  -27.6550   19.5860 C   0  0  0  0  0  3  0  0  0  0  0  0
  -23.5780  -29.7950   20.2280 C   0  0  0  0  0  2  0  0  0  0  0  0
  -24.6410  -31.0690   22.1450 N   0  0  0  0  0  0  0  0  0  0  0  0
  -23.5030  -32.1800   23.7590 O   0  0  0  0  0  0  0  0  0  0  0  0
  -22.7180  -29.4590   22.5700 C   0  0  0  0  0  0  0  0  0  0  0  0
  -21.3920  -29.2810   22.4450 N   0  0  0  0  0  0  0  0  0  0  0  0
  -23.3990  -28.8310   23.3840 O   0  0  0  0  0  0  0  0  0  0  0  0
  -20.9040  -29.8400   21.7580 H   0  0  0  0  0  0  0  0  0  0  0  0
  -18.0150  -28.0970   22.9470 C   0  0  0  0  0  0  0  0  0  0  0  0
  -20.5740  -28.3450   23.2150 C   0  0  0  0  0  3  0  0  0  0  0  0
  -20.6710  -26.9140   22.6370 C   0  0  0  0  0  2  0  0  0  0  0  0
  -19.5680  -26.5950   21.6240 C   0  0  0  0  0  2  0  0  0  0  0  0
  -18.1860  -26.7460   22.2700 C   0  0  0  0  0  2  0  0  0  0  0  0
  -19.1370  -28.8540   23.3760 C   0  0  0  0  0  0  0  0  0  0  0  0
  -18.9250  -30.1170   23.9680 C   0  0  0  0  0  3  0  0  0  0  0  0
  -17.6230  -30.6250   24.1360 C   0  0  0  0  0  3  0  0  0  0  0  0
  -16.5140  -29.8640   23.7220 C   0  0  0  0  0  3  0  0  0  0  0  0
  -16.7120  -28.6020   23.1350 C   0  0  0  0  0  3  0  0  0  0  0  0
  -25.8770  -32.4980   23.8670 C   0  0  0  0  0  3  0  0  0  0  0  0
  -25.5770  -33.8950   24.2020 N   0  0  0  0  0  0  0  0  0  0  0  0
  -25.9100  -34.9470   23.4430 C   0  0  0  0  0  0  0  0  0  0  0  0
  -26.5750  -34.8420   22.4080 O   0  0  0  0  0  0  0  0  0  0  0  0
  -24.9860  -34.0510   25.0060 H   0  0  0  0  0  0  0  0  0  0  0  0
  -24.1830  -36.7440   23.0980 C   0  0  0  0  0  1  0  0  0  0  0  0
  -25.4270  -36.3350   23.9040 C   0  0  0  0  0  3  0  0  0  0  0  0
  -27.5680  -37.2110   24.7260 C   0  0  0  0  0  1  0  0  0  0  0  0
  -26.4620  -37.3870   23.7880 N   0  0  0  0  0  0  0  0  0  0  0  0
  -26.0600  -38.3070   23.9420 H   0  0  0  0  0  0  0  0  0  0  0  0
  -26.3940  -31.7200   25.1390 C   0  0  1  0  0  0  0  0  0  0  0  0
  -25.3010  -31.4860   26.2070 C   0  0  0  0  0  1  0  0  0  0  0  0
  -26.9730  -30.3420   24.7430 C   0  0  0  0  0  1  0  0  0  0  0  0
  -27.5500  -32.5090   25.8010 C   0  0  0  0  0  1  0  0  0  0  0  0
  1  3  1  0
  1  2  1  0
  2  5  1  0
  3  6  1  0
  5  4  1  0
  5  7  1  0
  6 50  1  0
  6  4  1  0
  7  9  1  0
  7  8  1  0
 10  7  1  0
 10 11  1  0
 12 20  1  0
 13 18  1  0
 14 15  1  0
 14 13  1  0
 16 15  1  0
 16 25  1  0
 16 17  1  0
 18 12  1  0
 18 17  1  0
 19 12  2  0
 20 11  1  0
 20 21  1  0
 22 23  2  0
 23 42  1  0
 24 23  1  0
 24 27  1  0
 25 22  1  0
 25 26  1  0
 26 24  2  0
 27 28  1  0
 28 29  2  0
 30 33  1  0
 30 29  1  0
 31 30  2  0
 32 31  1  0
 32 27  2  0
 33 34  1  0
 34 35  1  0
 35 36  2  0
 37 36  1  0
 37 41  1  0
 38 37  2  0
 39 34  2  0
 39 38  1  0
 40 39  1  0
 42 43  1  0
 43 46  1  0
 43 45  1  0
 44 42  2  0
 47 48  1  0
 47 22  1  0
 49 47  1  0
 51 52  1  0
 51 50  1  0
 53 64  2  0
 54 52  1  0
 54 59  1  0
 55 63  1  0
 55 65  1  0
 56 62  1  0
 56 58  1  0
 57 63  1  0
 58 57  1  0
 59 58  2  0
 60 61  1  0
 60 54  2  0
 61 56  2  0
 62 55  1  0
 63 53  1  0
 65 67  2  0
 66 65  1  0
 68 66  1  0
 69 78  2  0
 69 74  1  0
 70 66  1  0
 70 74  1  0
 71 70  1  0
 72 73  1  0
 72 71  1  0
 73 69  1  0
 74 75  2  0
 75 76  1  0
 77 76  2  0
 78 77  1  0
 79 53  1  0
 79 80  1  0
 79 89  1  0
 80 83  1  0
 81 85  1  0
 81 80  1  0
 82 81  2  0
 85 84  1  0
 87 85  1  0
 87 88  1  0
 87 86  1  0
 89 92  1  1
 89 90  1  0
 91 89  1  0
M  ISO  4  12 100  20 100  51 101  52 101
M  END
>  <TORSDO>  (12) 
F 21

>  <SCORE>  (12) 
-13.642

>  <name>  (12) 
11

>  <ligand_id>  (12) 
11

>  <original_smiles>  (12) 
[H]c1c([H])c([H])c2c(c1[H])C([H])([H])C([H])([H])C([H])([H])C2([H])N([H])C(=O)C1([H])N(C(=O)C([H])(N([H])C(=O)C([H])(N([H])C([H])([H])[H])C([H])([H])[H])C(C([H])([H])[H])(C([H])([H])[H])C([H])([H])[H])C([H])([H])c2c([H])c(OC([H])([H])C([H])([H])N3C([H])([H])C([H])([H])C([H])([H])C([H])([N+]([H])([H])C([H])([H])C([H])([H])N([H])C(=O)N4C([H])([H])C([H])([H])C([H])([H])C([H])(n5nc(-c6c([H])c([H])c(Oc7c([H])c([H])c(F)c([H])c7F)c([H])c6[H])c(C(=O)N([H])[H])c5N([H])[H])C4([H])[H])C3([H])[H])c([H])c([H])c2C1([H])[H]

>  <smiles>  (12) 
[H]c1c([H])c([H])c2c(c1[H])C([H])([H])C([H])([H])C([H])([H])C2([H])N([H])C(=O)C1([H])N(C(=O)C([H])(N([H])C(=O)C([H])(N([H])C([H])([H])[H])C([H])([H])[H])C(C([H])([H])[H])(C([H])([H])[H])C([H])([H])[H])C([H])([H])c2c([H])c(OC([H])([H])C([H])([H])N3C([H])([H])C([H])([H])C([H])([H])C([H])([N+]([H])([H])C([H])([H])C([H])([H])N([H])C(=O)N4C([H])([H])C([H])([H])C([H])([H])C([H])(n5nc(-c6c([H])c([H])c(Oc7c([H])c([H])c(F)c([H])c7F)c([H])c6[H])c(C(=O)N([H])[H])c5N([H])[H])C4([H])[H])C3([H])[H])c([H])c([H])c2C1([H])[H]

$$$$
12:0:0
     RDKit          3D

 98109  0  0  1  0  0  0  0  0999 V2000
  -29.1320  -19.0640   20.7160 C   0  0  0  0  0  2  0  0  0  0  0  0
  -28.4600  -20.2020   18.6960 C   0  0  0  0  0  3  0  0  0  0  0  0
  -29.4480  -17.7920   20.0060 C   0  0  0  0  0  3  0  0  0  0  0  0
  -29.5580  -17.9910   18.6170 C   0  0  0  0  0  3  0  0  0  0  0  0
  -28.7250  -20.3420   20.0710 C   0  0  0  0  0  0  0  0  0  0  0  0
  -28.7760  -19.0110   18.0000 C   0  0  0  0  0  3  0  0  0  0  0  0
  -33.4370  -19.3140   19.6010 C   0  0  0  0  0  2  0  0  0  0  0  0
  -34.0510  -18.8540   18.2410 C   0  0  0  0  0  2  0  0  0  0  0  0
  -32.6650  -18.2920   20.4860 C   0  0  0  0  0  2  0  0  0  0  0  0
  -33.4100  -17.7140   17.3910 C   0  0  0  0  0  2  0  0  0  0  0  0
  -30.5120  -16.6830   20.5340 C   0  0  0  0  0  3  0  0  0  0  0  0
  -31.0800  -18.0710   18.4580 C   0  0  0  0  0  3  0  0  0  0  0  0
  -31.6820  -17.3800   19.7180 C   0  0  0  0  0  3  0  0  0  0  0  0
  -31.8550  -17.6740   17.1620 C   0  0  0  0  0  3  0  0  0  0  0  0
  -28.2270  -18.8470   16.5980 C   0  0  0  0  0  1  0  0  0  0  0  0
  -30.7250  -15.0020   20.3040 C   0  0  0  0  0  0  0  0  0  0  0  0
  -30.3670  -12.6730   19.3840 C   0  0  0  0  0  2  0  0  0  0  0  0
  -29.4570  -12.6410   18.1450 C   0  0  0  0  0  2  0  0  0  0  0  0
  -28.0050  -12.4300   18.5920 C   0  0  0  0  0  2  0  0  0  0  0  0
  -27.6080  -13.3670   19.7630 C   0  0  0  0  0  3  0  0  0  0  0  0
  -28.6760  -13.4780   20.8730 C   0  0  0  0  0  2  0  0  0  0  0  0
  -29.9450  -13.8400   20.2320 N   0  0  0  0  0  0  0  0  0  0  0  0
  -31.9100  -14.7060   20.1300 O   0  0  0  0  0  0  0  0  0  0  0  0
  -25.2430  -13.8980   20.5550 C   0  0  0  0  0  0  0  0  0  0  0  0
  -24.1930  -13.1070   20.9260 C   0  0  0  0  0  0  0  0  0  0  0  0
  -24.6710  -11.7610   20.8780 C   0  0  0  0  0  0  0  0  0  0  0  0
  -26.2910  -13.0360   20.2940 N   0  0  0  0  0  0  0  0  0  0  0  0
  -25.9600  -11.7420   20.5580 N   0  0  0  0  0  0  0  0  0  0  0  0
  -23.9560  -10.4900   21.0620 C   0  0  0  0  0  0  0  0  0  0  0  0
  -24.3980   -9.5200   21.9890 C   0  0  0  0  0  3  0  0  0  0  0  0
  -23.6810   -8.3160   22.1630 C   0  0  0  0  0  3  0  0  0  0  0  0
  -22.5080   -8.0730   21.4090 C   0  0  0  0  0  0  0  0  0  0  0  0
  -22.0870   -9.0300   20.4690 C   0  0  0  0  0  3  0  0  0  0  0  0
  -22.8040  -10.2250   20.2930 C   0  0  0  0  0  3  0  0  0  0  0  0
  -21.7620   -6.9220   21.4920 O   0  0  0  0  0  0  0  0  0  0  0  0
  -21.7120   -6.1770   22.6430 C   0  0  0  0  0  0  0  0  0  0  0  0
  -21.2650   -6.7260   23.8650 C   0  0  0  0  0  3  0  0  0  0  0  0
  -21.1660   -5.9090   25.0090 C   0  0  0  0  0  3  0  0  0  0  0  0
  -21.4990   -4.5430   24.9310 C   0  0  0  0  0  0  0  0  0  0  0  0
  -21.9380   -3.9930   23.7130 C   0  0  0  0  0  3  0  0  0  0  0  0
  -22.0410   -4.8090   22.5710 C   0  0  0  0  0  0  0  0  0  0  0  0
  -22.4450   -4.2700   21.3960 F   0  0  0  0  0  0  0  0  0  0  0  0
  -21.3950   -3.7550   26.0260 F   0  0  0  0  0  0  0  0  0  0  0  0
  -22.7930  -13.5660   21.2090 C   0  0  0  0  0  0  0  0  0  0  0  0
  -22.0780  -12.8510   22.0690 N   0  0  0  0  0  0  0  0  0  0  0  0
  -22.3460  -14.5940   20.7040 O   0  0  0  0  0  0  0  0  0  0  0  0
  -22.4520  -12.0170   22.4990 H   0  0  0  0  0  0  0  0  0  0  0  0
  -21.1380  -13.1390   22.2990 H   0  0  0  0  0  0  0  0  0  0  0  0
  -25.3970  -15.2720   20.3900 N   0  0  0  0  0  0  0  0  0  0  0  0
  -24.6380  -15.9320   20.5250 H   0  0  0  0  0  0  0  0  0  0  0  0
  -26.2520  -15.7150   20.0820 H   0  0  0  0  0  0  0  0  0  0  0  0
  -31.6870  -19.8560   15.6300 C   0  0  0  0  0  2  0  0  0  0  0  0
  -32.2320  -18.7850   14.7100 C   0  0  0  0  0  2  0  0  0  0  0  0
  -31.3760  -18.4040   15.9050 C   0  0  0  0  0  3  0  0  0  0  0  0
  -28.4400  -21.8030   20.7690 C   0  0  0  0  0  2  0  0  0  0  0  0
  -28.5670  -23.3230   20.0480 C   0  0  0  0  0  3  0  0  0  0  0  0
  -28.0060  -24.7560   20.7300 C   0  0  0  0  0  3  0  0  0  0  0  0
  -28.2710  -26.2340   20.3200 O   0  0  0  0  0  0  0  0  0  0  0  0
  -24.6360  -31.9630   23.2210 C   0  0  0  0  0  0  0  0  0  0  0  0
  -27.2180  -27.2090   20.2890 C   0  0  0  0  0  0  0  0  0  0  0  0
  -23.4450  -30.5290   21.6110 C   0  0  0  0  0  3  0  0  0  0  0  0
  -24.8970  -28.9400   20.2180 C   0  0  0  0  0  0  0  0  0  0  0  0
  -25.9980  -30.8030   21.4500 C   0  0  0  0  0  2  0  0  0  0  0  0
  -26.0750  -29.4030   20.8210 C   0  0  0  0  0  0  0  0  0  0  0  0
  -27.2420  -28.5540   20.8330 C   0  0  0  0  0  3  0  0  0  0  0  0
  -26.0190  -26.8390   19.6510 C   0  0  0  0  0  3  0  0  0  0  0  0
  -24.8820  -27.6730   19.6180 C   0  0  0  0  0  3  0  0  0  0  0  0
  -23.6680  -29.8330   20.2460 C   0  0  0  0  0  2  0  0  0  0  0  0
  -24.7140  -31.1160   22.1510 N   0  0  0  0  0  0  0  0  0  0  0  0
  -23.5400  -32.2830   23.7040 O   0  0  0  0  0  0  0  0  0  0  0  0
  -22.7660  -29.5350   22.5870 C   0  0  0  0  0  0  0  0  0  0  0  0
  -21.4390  -29.3600   22.4600 N   0  0  0  0  0  0  0  0  0  0  0  0
  -23.4350  -28.9210   23.4220 O   0  0  0  0  0  0  0  0  0  0  0  0
  -20.9530  -29.9090   21.7630 H   0  0  0  0  0  0  0  0  0  0  0  0
  -18.0540  -28.1740   22.9740 C   0  0  0  0  0  0  0  0  0  0  0  0
  -20.6150  -28.4320   23.2370 C   0  0  0  0  0  3  0  0  0  0  0  0
  -20.7120  -26.9950   22.6730 C   0  0  0  0  0  2  0  0  0  0  0  0
  -19.6080  -26.6680   21.6630 C   0  0  0  0  0  2  0  0  0  0  0  0
  -18.2260  -26.8190   22.3060 C   0  0  0  0  0  2  0  0  0  0  0  0
  -19.1750  -28.9370   23.3970 C   0  0  0  0  0  0  0  0  0  0  0  0
  -18.9590  -30.2010   23.9830 C   0  0  0  0  0  3  0  0  0  0  0  0
  -17.6560  -30.7050   24.1520 C   0  0  0  0  0  3  0  0  0  0  0  0
  -16.5490  -29.9400   23.7450 C   0  0  0  0  0  3  0  0  0  0  0  0
  -16.7490  -28.6770   23.1600 C   0  0  0  0  0  3  0  0  0  0  0  0
  -25.9090  -32.5990   23.8610 C   0  0  0  0  0  3  0  0  0  0  0  0
  -26.4140  -31.8370   25.1490 C   0  0  1  0  0  0  0  0  0  0  0  0
  -25.3100  -31.6020   26.2050 C   0  0  0  0  0  1  0  0  0  0  0  0
  -27.0110  -30.4600   24.7770 C   0  0  0  0  0  1  0  0  0  0  0  0
  -27.5520  -32.6420   25.8190 C   0  0  0  0  0  1  0  0  0  0  0  0
  -25.5910  -33.9970   24.1920 N   0  0  0  0  0  0  0  0  0  0  0  0
  -25.9140  -35.0530   23.4330 C   0  0  0  0  0  0  0  0  0  0  0  0
  -26.5790  -34.9500   22.3990 O   0  0  0  0  0  0  0  0  0  0  0  0
  -24.9980  -34.1480   24.9940 H   0  0  0  0  0  0  0  0  0  0  0  0
  -24.1750  -36.8390   23.0850 C   0  0  0  0  0  1  0  0  0  0  0  0
  -25.4200  -36.4400   23.8920 C   0  0  0  0  0  3  0  0  0  0  0  0
  -27.5500  -37.3380   24.7200 C   0  0  0  0  0  1  0  0  0  0  0  0
  -26.4480  -37.4990   23.7760 N   0  0  0  0  0  0  0  0  0  0  0  0
  -26.0370  -38.4180   23.9210 H   0  0  0  0  0  0  0  0  0  0  0  0
  2  5  2  0
  3 11  1  0
  3  1  1  0
  4  3  1  0
  5  1  1  0
  5 55  1  0
  6  4  1  0
  6  2  1  0
  7  9  1  0
  8  7  1  0
 10  8  1  0
 12  4  1  0
 12 13  1  0
 13  9  1  0
 13 11  1  0
 14 10  1  0
 14 12  1  0
 15  6  1  0
 16 11  1  0
 17 22  1  0
 18 19  1  0
 18 17  1  0
 19 20  1  0
 20 27  1  0
 20 21  1  0
 22 16  1  0
 22 21  1  0
 23 16  2  0
 24 25  2  0
 25 44  1  0
 26 25  1  0
 26 29  1  0
 27 24  1  0
 27 28  1  0
 28 26  2  0
 29 30  1  0
 30 31  2  0
 32 35  1  0
 32 31  1  0
 33 32  2  0
 34 33  1  0
 34 29  2  0
 35 36  1  0
 36 37  1  0
 37 38  2  0
 39 38  1  0
 39 43  1  0
 40 39  2  0
 41 36  2  0
 41 40  1  0
 42 41  1  0
 44 45  1  0
 45 48  1  0
 45 47  1  0
 46 44  2  0
 49 50  1  0
 49 24  1  0
 51 49  1  0
 52 54  1  0
 53 52  1  0
 53 54  1  0
 54 14  1  0
 56 57  2  0
 56 55  1  0
 58 57  1  0
 59 70  2  0
 59 85  1  0
 60 58  1  0
 60 65  1  0
 61 69  1  0
 61 71  1  0
 62 68  1  0
 62 64  1  0
 63 69  1  0
 64 65  2  0
 64 63  1  0
 66 60  2  0
 67 66  1  0
 67 62  2  0
 68 61  1  0
 69 59  1  0
 71 73  2  0
 72 71  1  0
 72 76  1  0
 74 72  1  0
 75 84  2  0
 75 80  1  0
 76 80  1  0
 77 76  1  0
 78 79  1  0
 78 77  1  0
 79 75  1  0
 80 81  2  0
 81 82  1  0
 83 82  2  0
 84 83  1  0
 85 90  1  0
 85 86  1  0
 86 89  1  1
 86 87  1  0
 88 86  1  0
 90 93  1  0
 91 95  1  0
 91 90  1  0
 92 91  2  0
 94 95  1  0
 97 95  1  0
 97 98  1  0
 97 96  1  0
M  ISO  4  11 100  16 100  57 101  58 101
M  END
>  <TORSDO>  (13) 
F 20

>  <SCORE>  (13) 
-14.977

>  <name>  (13) 
12

>  <ligand_id>  (13) 
12

>  <original_smiles>  (13) 
[H]c1c([H])c([H])c2c(c1[H])C([H])([H])C([H])([H])C([H])([H])C2([H])N([H])C(=O)C1([H])N(C(=O)C([H])(N([H])C(=O)C([H])(N([H])C([H])([H])[H])C([H])([H])[H])C(C([H])([H])[H])(C([H])([H])[H])C([H])([H])[H])C([H])([H])c2c([H])c(OC([H])([H])C([H])([H])C([H])([H])c3c([H])c(C([H])([H])[H])c4c(c3[H])C([H])(C(=O)N3C([H])([H])C([H])([H])C([H])([H])C([H])(n5nc(-c6c([H])c([H])c(Oc7c([H])c([H])c(F)c([H])c7F)c([H])c6[H])c(C(=O)N([H])[H])c5N([H])[H])C3([H])[H])C3([H])C([H])([H])C([H])([H])C([H])([H])C([H])([H])C([H])(C5([H])C([H])([H])C5([H])[H])C43[H])c([H])c([H])c2C1([H])[H]

>  <smiles>  (13) 
[H]c1c([H])c([H])c2c(c1[H])C([H])([H])C([H])([H])C([H])([H])C2([H])N([H])C(=O)C1([H])N(C(=O)C([H])(N([H])C(=O)C([H])(N([H])C([H])([H])[H])C([H])([H])[H])C(C([H])([H])[H])(C([H])([H])[H])C([H])([H])[H])C([H])([H])c2c([H])c(OC([H])([H])C([H])([H])C([H])([H])c3c([H])c(C([H])([H])[H])c4c(c3[H])C([H])(C(=O)N3C([H])([H])C([H])([H])C([H])([H])C([H])(n5nc(-c6c([H])c([H])c(Oc7c([H])c([H])c(F)c([H])c7F)c([H])c6[H])c(C(=O)N([H])[H])c5N([H])[H])C3([H])[H])C3([H])C([H])([H])C([H])([H])C([H])([H])C([H])([H])C([H])(C5([H])C([H])([H])C5([H])[H])C43[H])c([H])c([H])c2C1([H])[H]

$$$$
13:0:0
     RDKit          3D

 95104  0  0  1  0  0  0  0  0999 V2000
  -30.9320  -20.8970   21.0370 C   0  0  0  0  0  2  0  0  0  0  0  0
  -30.9920  -19.4350   21.5450 C   0  0  0  0  0  2  0  0  0  0  0  0
  -28.7620  -18.9810   20.5470 C   0  0  0  0  0  2  0  0  0  0  0  0
  -29.4980  -21.4930   20.9210 C   0  0  0  0  0  3  0  0  0  0  0  0
  -30.2010  -18.3920   20.7130 C   0  0  0  0  0  3  0  0  0  0  0  0
  -28.6770  -20.4860   20.0380 C   0  0  0  0  0  3  0  0  0  0  0  0
  -30.2640  -23.8610   21.6620 C   0  0  0  0  0  2  0  0  0  0  0  0
  -29.9460  -25.3370   21.4130 C   0  0  0  0  0  2  0  0  0  0  0  0
  -28.2780  -23.9560   20.2980 C   0  0  0  0  0  2  0  0  0  0  0  0
  -29.5550  -23.0580   20.5530 C   0  0  0  0  0  3  0  0  0  0  0  0
  -28.4950  -25.3920   20.9320 C   0  0  0  0  0  3  0  0  0  0  0  0
  -28.3970  -26.6160   20.1380 O   0  0  0  0  0  0  0  0  0  0  0  0
  -24.6020  -31.9050   23.2450 C   0  0  0  0  0  0  0  0  0  0  0  0
  -27.2410  -27.3840   20.2080 C   0  0  0  0  0  0  0  0  0  0  0  0
  -23.4020  -30.4900   21.6130 C   0  0  0  0  0  3  0  0  0  0  0  0
  -24.8590  -28.9360   20.2010 C   0  0  0  0  0  0  0  0  0  0  0  0
  -25.9350  -30.8300   21.4260 C   0  0  0  0  0  2  0  0  0  0  0  0
  -26.0210  -29.4510   20.7900 C   0  0  0  0  0  0  0  0  0  0  0  0
  -27.2190  -28.6860   20.7820 C   0  0  0  0  0  3  0  0  0  0  0  0
  -26.0610  -26.8950   19.6160 C   0  0  0  0  0  3  0  0  0  0  0  0
  -24.8760  -27.6610   19.6080 C   0  0  0  0  0  3  0  0  0  0  0  0
  -23.6180  -29.8040   20.2390 C   0  0  0  0  0  2  0  0  0  0  0  0
  -24.6650  -31.0880   22.1550 N   0  0  0  0  0  0  0  0  0  0  0  0
  -23.5130  -32.2040   23.7550 O   0  0  0  0  0  0  0  0  0  0  0  0
  -22.7440  -29.4740   22.5770 C   0  0  0  0  0  0  0  0  0  0  0  0
  -21.4200  -29.2910   22.4470 N   0  0  0  0  0  0  0  0  0  0  0  0
  -23.4250  -28.8540   23.3980 O   0  0  0  0  0  0  0  0  0  0  0  0
  -20.9310  -29.8440   21.7570 H   0  0  0  0  0  0  0  0  0  0  0  0
  -18.0430  -28.0980   22.9490 C   0  0  0  0  0  0  0  0  0  0  0  0
  -20.6020  -28.3520   23.2160 C   0  0  0  0  0  3  0  0  0  0  0  0
  -20.7000  -26.9220   22.6330 C   0  0  0  0  0  2  0  0  0  0  0  0
  -19.5960  -26.6050   21.6210 C   0  0  0  0  0  2  0  0  0  0  0  0
  -18.2160  -26.7510   22.2680 C   0  0  0  0  0  2  0  0  0  0  0  0
  -19.1640  -28.8570   23.3790 C   0  0  0  0  0  0  0  0  0  0  0  0
  -18.9490  -30.1180   23.9750 C   0  0  0  0  0  3  0  0  0  0  0  0
  -17.6460  -30.6220   24.1450 C   0  0  0  0  0  3  0  0  0  0  0  0
  -16.5390  -29.8600   23.7320 C   0  0  0  0  0  3  0  0  0  0  0  0
  -16.7390  -28.6000   23.1390 C   0  0  0  0  0  3  0  0  0  0  0  0
  -25.8840  -32.5300   23.8780 C   0  0  0  0  0  3  0  0  0  0  0  0
  -26.3920  -31.7640   25.1610 C   0  0  1  0  0  0  0  0  0  0  0  0
  -25.2900  -31.5310   26.2210 C   0  0  0  0  0  1  0  0  0  0  0  0
  -26.9780  -30.3850   24.7790 C   0  0  0  0  0  1  0  0  0  0  0  0
  -27.5380  -32.5590   25.8280 C   0  0  0  0  0  1  0  0  0  0  0  0
  -25.5790  -33.9310   24.2010 N   0  0  0  0  0  0  0  0  0  0  0  0
  -25.9130  -34.9770   23.4350 C   0  0  0  0  0  0  0  0  0  0  0  0
  -26.5840  -34.8660   22.4050 O   0  0  0  0  0  0  0  0  0  0  0  0
  -24.9840  -34.0910   25.0010 H   0  0  0  0  0  0  0  0  0  0  0  0
  -24.1880  -36.7710   23.0660 C   0  0  0  0  0  1  0  0  0  0  0  0
  -25.4270  -36.3690   23.8830 C   0  0  0  0  0  3  0  0  0  0  0  0
  -27.5580  -37.2570   24.7170 C   0  0  0  0  0  1  0  0  0  0  0  0
  -26.4610  -37.4190   23.7670 N   0  0  0  0  0  0  0  0  0  0  0  0
  -26.0550  -38.3410   23.9050 H   0  0  0  0  0  0  0  0  0  0  0  0
  -29.0400  -20.5830   18.6110 N   0  0  0  0  0  4  0  0  0  0  0  0
  -29.9940  -20.3130   18.4530 H   0  0  0  0  0  0  0  0  0  0  0  0
  -28.9160  -21.5240   18.2810 H   0  0  0  0  0  0  0  0  0  0  0  0
  -28.4470  -19.9890   18.0600 H   0  0  0  0  0  0  0  0  0  0  0  0
  -30.3690  -16.9790   21.4320 C   0  0  0  0  0  2  0  0  0  0  0  0
  -30.6130  -14.6300   20.4270 C   0  0  0  0  0  0  0  0  0  0  0  0
  -30.3610  -12.4270   19.3040 C   0  0  0  0  0  2  0  0  0  0  0  0
  -29.4170  -12.5710   18.0920 C   0  0  0  0  0  2  0  0  0  0  0  0
  -27.9440  -12.4200   18.5260 C   0  0  0  0  0  2  0  0  0  0  0  0
  -27.5930  -13.2790   19.7690 C   0  0  0  0  0  3  0  0  0  0  0  0
  -28.6490  -13.1080   20.8810 C   0  0  0  0  0  2  0  0  0  0  0  0
  -29.9560  -13.4380   20.2970 N   0  0  0  0  0  0  0  0  0  0  0  0
  -31.7870  -14.7650   20.0680 O   0  0  0  0  0  0  0  0  0  0  0  0
  -29.8710  -15.7020   20.8340 N   0  0  0  0  0  0  0  0  0  0  0  0
  -28.8940  -15.5040   20.9870 H   0  0  0  0  0  0  0  0  0  0  0  0
  -25.2010  -13.8900   20.4790 C   0  0  0  0  0  0  0  0  0  0  0  0
  -24.1310  -13.1220   20.8490 C   0  0  0  0  0  0  0  0  0  0  0  0
  -24.5900  -11.7690   20.8290 C   0  0  0  0  0  0  0  0  0  0  0  0
  -26.2430  -13.0050   20.2530 N   0  0  0  0  0  0  0  0  0  0  0  0
  -25.8820  -11.7250   20.5240 N   0  0  0  0  0  0  0  0  0  0  0  0
  -23.8600  -10.5090   21.0220 C   0  0  0  0  0  0  0  0  0  0  0  0
  -24.2840   -9.5480   21.9670 C   0  0  0  0  0  3  0  0  0  0  0  0
  -23.5560   -8.3530   22.1480 C   0  0  0  0  0  3  0  0  0  0  0  0
  -22.3890   -8.1110   21.3830 C   0  0  0  0  0  0  0  0  0  0  0  0
  -21.9850   -9.0610   20.4300 C   0  0  0  0  0  3  0  0  0  0  0  0
  -22.7140  -10.2470   20.2470 C   0  0  0  0  0  3  0  0  0  0  0  0
  -21.6320   -6.9680   21.4740 O   0  0  0  0  0  0  0  0  0  0  0  0
  -21.5700   -6.2340   22.6320 C   0  0  0  0  0  0  0  0  0  0  0  0
  -21.1200   -6.7970   23.8460 C   0  0  0  0  0  3  0  0  0  0  0  0
  -21.0060   -5.9900   24.9960 C   0  0  0  0  0  3  0  0  0  0  0  0
  -21.3320   -4.6230   24.9320 C   0  0  0  0  0  0  0  0  0  0  0  0
  -21.7750   -4.0600   23.7220 C   0  0  0  0  0  3  0  0  0  0  0  0
  -21.8910   -4.8630   22.5740 C   0  0  0  0  0  0  0  0  0  0  0  0
  -22.2980   -4.3120   21.4060 F   0  0  0  0  0  0  0  0  0  0  0  0
  -21.2150   -3.8450   26.0340 F   0  0  0  0  0  0  0  0  0  0  0  0
  -22.7340  -13.6030   21.1130 C   0  0  0  0  0  0  0  0  0  0  0  0
  -21.9980  -12.9090   21.9730 N   0  0  0  0  0  0  0  0  0  0  0  0
  -22.3030  -14.6310   20.5910 O   0  0  0  0  0  0  0  0  0  0  0  0
  -22.3590  -12.0780   22.4170 H   0  0  0  0  0  0  0  0  0  0  0  0
  -21.0600  -13.2140   22.1920 H   0  0  0  0  0  0  0  0  0  0  0  0
  -25.3690  -15.2590   20.2930 N   0  0  0  0  0  0  0  0  0  0  0  0
  -24.5990  -15.9130   20.3910 H   0  0  0  0  0  0  0  0  0  0  0  0
  -26.2120  -15.6920   19.9390 H   0  0  0  0  0  0  0  0  0  0  0  0
  1  2  1  0
  3  5  1  0
  4  1  1  0
  5 57  1  0
  5  2  1  0
  6 53  1  0
  6  3  1  0
  6  4  1  0
  8  7  1  0
  9 11  1  0
 10  9  1  0
 10  4  1  0
 10  7  1  0
 11 12  1  0
 11  8  1  0
 12 14  1  0
 13 24  2  0
 14 19  1  0
 15 23  1  0
 15 25  1  0
 16 22  1  0
 16 18  1  0
 17 23  1  0
 18 17  1  0
 19 18  2  0
 20 14  2  0
 21 20  1  0
 21 16  2  0
 22 15  1  0
 23 13  1  0
 25 27  2  0
 26 25  1  0
 28 26  1  0
 29 38  2  0
 29 34  1  0
 30 26  1  0
 30 34  1  0
 31 30  1  0
 32 33  1  0
 32 31  1  0
 33 29  1  0
 34 35  2  0
 35 36  1  0
 37 36  2  0
 38 37  1  0
 39 13  1  0
 39 44  1  0
 39 40  1  0
 40 43  1  1
 40 41  1  0
 42 40  1  0
 44 47  1  0
 45 49  1  0
 45 44  1  0
 46 45  2  0
 49 48  1  0
 51 49  1  0
 51 52  1  0
 51 50  1  0
 54 53  1  0
 55 53  1  0
 56 53  1  0
 58 66  1  0
 59 64  1  0
 60 61  1  0
 60 59  1  0
 62 61  1  0
 62 71  1  0
 62 63  1  0
 64 58  1  0
 64 63  1  0
 65 58  2  0
 66 67  1  0
 66 57  1  0
 68 69  2  0
 69 88  1  0
 70 69  1  0
 70 73  1  0
 71 68  1  0
 71 72  1  0
 72 70  2  0
 73 74  1  0
 74 75  2  0
 76 79  1  0
 76 75  1  0
 77 76  2  0
 78 77  1  0
 78 73  2  0
 79 80  1  0
 80 81  1  0
 81 82  2  0
 83 82  1  0
 83 87  1  0
 84 83  2  0
 85 80  2  0
 85 84  1  0
 86 85  1  0
 88 89  1  0
 89 92  1  0
 89 91  1  0
 90 88  2  0
 93 94  1  0
 93 68  1  0
 95 93  1  0
M  ISO  4  11 101  12 101  58 100  66 100
M  END
>  <TORSDO>  (14) 
F 19

>  <SCORE>  (14) 
-14.778

>  <name>  (14) 
13

>  <ligand_id>  (14) 
13

>  <original_smiles>  (14) 
[H]c1c([H])c([H])c2c(c1[H])C([H])([H])C([H])([H])C([H])([H])C2([H])N([H])C(=O)C1([H])N(C(=O)C([H])(N([H])C(=O)C([H])(N([H])C([H])([H])[H])C([H])([H])[H])C(C([H])([H])[H])(C([H])([H])[H])C([H])([H])[H])C([H])([H])c2c([H])c(OC3([H])C([H])([H])C([H])([H])C([H])(C4([H])C([H])([H])C([H])([H])C([H])(C([H])([H])N([H])C(=O)N5C([H])([H])C([H])([H])C([H])([H])C([H])(n6nc(-c7c([H])c([H])c(Oc8c([H])c([H])c(F)c([H])c8F)c([H])c7[H])c(C(=O)N([H])[H])c6N([H])[H])C5([H])[H])C([H])([H])C4([H])[N+]([H])([H])[H])C3([H])[H])c([H])c([H])c2C1([H])[H]

>  <smiles>  (14) 
[H]c1c([H])c([H])c2c(c1[H])C([H])([H])C([H])([H])C([H])([H])C2([H])N([H])C(=O)C1([H])N(C(=O)C([H])(N([H])C(=O)C([H])(N([H])C([H])([H])[H])C([H])([H])[H])C(C([H])([H])[H])(C([H])([H])[H])C([H])([H])[H])C([H])([H])c2c([H])c(OC3([H])C([H])([H])C([H])([H])C([H])(C4([H])C([H])([H])C([H])([H])C([H])(C([H])([H])N([H])C(=O)N5C([H])([H])C([H])([H])C([H])([H])C([H])(n6nc(-c7c([H])c([H])c(Oc8c([H])c([H])c(F)c([H])c8F)c([H])c7[H])c(C(=O)N([H])[H])c6N([H])[H])C5([H])[H])C([H])([H])C4([H])[N+]([H])([H])[H])C3([H])[H])c([H])c([H])c2C1([H])[H]

$$$$
14:0:0
     RDKit          3D

 95104  0  0  1  0  0  0  0  0999 V2000
  -30.4700  -23.6940   17.3050 C   0  0  0  0  0  2  0  0  0  0  0  0
  -30.9430  -23.3400   18.7290 C   0  0  0  0  0  2  0  0  0  0  0  0
  -29.2860  -25.8290   18.1770 C   0  0  0  0  0  2  0  0  0  0  0  0
  -29.4850  -24.5480   20.4370 C   0  0  0  0  0  2  0  0  0  0  0  0
  -29.2860  -24.6730   17.1580 C   0  0  0  0  0  3  0  0  0  0  0  0
  -29.8340  -23.1720   19.7940 C   0  0  0  0  0  3  0  0  0  0  0  0
  -28.6370  -25.4830   19.5320 C   0  0  0  0  0  3  0  0  0  0  0  0
  -29.2510  -25.2220   15.7200 C   0  0  0  0  0  1  0  0  0  0  0  0
  -30.2440  -22.1430   20.7960 N   0  0  0  0  0  4  0  0  0  0  0  0
  -29.8180  -22.3490   21.6860 H   0  0  0  0  0  0  0  0  0  0  0  0
  -31.2430  -22.1870   20.9250 H   0  0  0  0  0  0  0  0  0  0  0  0
  -29.8400  -20.7640   20.4110 C   0  0  0  0  0  2  0  0  0  0  0  0
  -30.5680  -19.6120   21.1570 C   0  0  0  0  0  2  0  0  0  0  0  0
  -29.2900  -16.4080   19.4650 C   0  0  0  0  0  2  0  0  0  0  0  0
  -29.7320  -17.8690   19.4310 C   0  0  0  0  0  2  0  0  0  0  0  0
  -30.5630  -16.9770   21.4730 C   0  0  0  0  0  2  0  0  0  0  0  0
  -29.8190  -15.7960   20.7900 C   0  0  0  0  0  3  0  0  0  0  0  0
  -29.8840  -18.2420   20.9030 C   0  0  0  0  0  3  0  0  0  0  0  0
  -30.6530  -14.5110   20.4970 C   0  0  0  0  0  0  0  0  0  0  0  0
  -30.4100  -12.3350   19.3720 C   0  0  0  0  0  2  0  0  0  0  0  0
  -29.4840  -12.5490   18.1520 C   0  0  0  0  0  2  0  0  0  0  0  0
  -27.9970  -12.4200   18.5480 C   0  0  0  0  0  2  0  0  0  0  0  0
  -27.6420  -13.2370   19.8190 C   0  0  0  0  0  3  0  0  0  0  0  0
  -28.6820  -12.9980   20.9360 C   0  0  0  0  0  2  0  0  0  0  0  0
  -30.0170  -13.3100   20.4030 N   0  0  0  0  0  0  0  0  0  0  0  0
  -31.8250  -14.6590   20.1360 O   0  0  0  0  0  0  0  0  0  0  0  0
  -25.2300  -13.8670   20.4660 C   0  0  0  0  0  0  0  0  0  0  0  0
  -24.1530  -13.1000   20.8210 C   0  0  0  0  0  0  0  0  0  0  0  0
  -24.6120  -11.7490   20.8190 C   0  0  0  0  0  0  0  0  0  0  0  0
  -26.2780  -12.9780   20.2720 N   0  0  0  0  0  0  0  0  0  0  0  0
  -25.9080  -11.7010   20.5410 N   0  0  0  0  0  0  0  0  0  0  0  0
  -23.8830  -10.4900   21.0100 C   0  0  0  0  0  0  0  0  0  0  0  0
  -24.2950   -9.5360   21.9650 C   0  0  0  0  0  3  0  0  0  0  0  0
  -23.5640   -8.3410   22.1430 C   0  0  0  0  0  3  0  0  0  0  0  0
  -22.4100   -8.0910   21.3620 C   0  0  0  0  0  0  0  0  0  0  0  0
  -22.0210   -9.0340   20.3940 C   0  0  0  0  0  3  0  0  0  0  0  0
  -22.7510  -10.2200   20.2170 C   0  0  0  0  0  3  0  0  0  0  0  0
  -21.6550   -6.9480   21.4470 O   0  0  0  0  0  0  0  0  0  0  0  0
  -21.5780   -6.2210   22.6080 C   0  0  0  0  0  0  0  0  0  0  0  0
  -21.1060   -6.7870   23.8130 C   0  0  0  0  0  3  0  0  0  0  0  0
  -20.9760   -5.9850   24.9640 C   0  0  0  0  0  3  0  0  0  0  0  0
  -21.3100   -4.6190   24.9130 C   0  0  0  0  0  0  0  0  0  0  0  0
  -21.7790   -4.0530   23.7140 C   0  0  0  0  0  3  0  0  0  0  0  0
  -21.9080   -4.8520   22.5640 C   0  0  0  0  0  0  0  0  0  0  0  0
  -22.3370   -4.2950   21.4050 F   0  0  0  0  0  0  0  0  0  0  0  0
  -21.1780   -3.8470   26.0170 F   0  0  0  0  0  0  0  0  0  0  0  0
  -22.7500  -13.5830   21.0550 C   0  0  0  0  0  0  0  0  0  0  0  0
  -22.0050  -12.8920   21.9140 N   0  0  0  0  0  0  0  0  0  0  0  0
  -22.3220  -14.6030   20.5170 O   0  0  0  0  0  0  0  0  0  0  0  0
  -22.3650  -12.0680   22.3700 H   0  0  0  0  0  0  0  0  0  0  0  0
  -21.0610  -13.1910   22.1150 H   0  0  0  0  0  0  0  0  0  0  0  0
  -25.4040  -15.2350   20.2760 N   0  0  0  0  0  0  0  0  0  0  0  0
  -24.6420  -15.8990   20.3640 H   0  0  0  0  0  0  0  0  0  0  0  0
  -26.2740  -15.6680   19.9960 H   0  0  0  0  0  0  0  0  0  0  0  0
  -28.4410  -26.7390   20.2010 O   0  0  0  0  0  0  0  0  0  0  0  0
  -24.6140  -31.8770   23.2490 C   0  0  0  0  0  0  0  0  0  0  0  0
  -27.2420  -27.4340   20.1370 C   0  0  0  0  0  0  0  0  0  0  0  0
  -23.3960  -30.4800   21.6110 C   0  0  0  0  0  3  0  0  0  0  0  0
  -24.8410  -28.9500   20.1670 C   0  0  0  0  0  0  0  0  0  0  0  0
  -25.9230  -30.8310   21.4070 C   0  0  0  0  0  2  0  0  0  0  0  0
  -26.0000  -29.4640   20.7580 C   0  0  0  0  0  0  0  0  0  0  0  0
  -27.1940  -28.7110   20.7440 C   0  0  0  0  0  3  0  0  0  0  0  0
  -26.0590  -26.9410   19.5280 C   0  0  0  0  0  3  0  0  0  0  0  0
  -24.8660  -27.6870   19.5510 C   0  0  0  0  0  3  0  0  0  0  0  0
  -23.5970  -29.8100   20.2260 C   0  0  0  0  0  2  0  0  0  0  0  0
  -24.6640  -31.0740   22.1490 N   0  0  0  0  0  0  0  0  0  0  0  0
  -23.5310  -32.1720   23.7720 O   0  0  0  0  0  0  0  0  0  0  0  0
  -22.7490  -29.4550   22.5690 C   0  0  0  0  0  0  0  0  0  0  0  0
  -21.4250  -29.2710   22.4440 N   0  0  0  0  0  0  0  0  0  0  0  0
  -23.4340  -28.8280   23.3820 O   0  0  0  0  0  0  0  0  0  0  0  0
  -20.9330  -29.8290   21.7600 H   0  0  0  0  0  0  0  0  0  0  0  0
  -18.0520  -28.0750   22.9370 C   0  0  0  0  0  0  0  0  0  0  0  0
  -20.6100  -28.3310   23.2110 C   0  0  0  0  0  3  0  0  0  0  0  0
  -20.7120  -26.9030   22.6270 C   0  0  0  0  0  2  0  0  0  0  0  0
  -19.6100  -26.5860   21.6100 C   0  0  0  0  0  2  0  0  0  0  0  0
  -18.2280  -26.7290   22.2530 C   0  0  0  0  0  2  0  0  0  0  0  0
  -19.1700  -28.8340   23.3720 C   0  0  0  0  0  0  0  0  0  0  0  0
  -18.9520  -30.0950   23.9680 C   0  0  0  0  0  3  0  0  0  0  0  0
  -17.6480  -30.5970   24.1350 C   0  0  0  0  0  3  0  0  0  0  0  0
  -16.5440  -29.8330   23.7180 C   0  0  0  0  0  3  0  0  0  0  0  0
  -16.7470  -28.5750   23.1250 C   0  0  0  0  0  3  0  0  0  0  0  0
  -25.9080  -32.4890   23.8750 C   0  0  0  0  0  3  0  0  0  0  0  0
  -26.4240  -31.7080   25.1460 C   0  0  1  0  0  0  0  0  0  0  0  0
  -25.3330  -31.4660   26.2130 C   0  0  0  0  0  1  0  0  0  0  0  0
  -27.0040  -30.3310   24.7430 C   0  0  0  0  0  1  0  0  0  0  0  0
  -27.5780  -32.4930   25.8130 C   0  0  0  0  0  1  0  0  0  0  0  0
  -25.6130  -33.8870   24.2140 N   0  0  0  0  0  0  0  0  0  0  0  0
  -25.9350  -34.9370   23.4490 C   0  0  0  0  0  0  0  0  0  0  0  0
  -26.5870  -34.8340   22.4060 O   0  0  0  0  0  0  0  0  0  0  0  0
  -25.0290  -34.0450   25.0220 H   0  0  0  0  0  0  0  0  0  0  0  0
  -24.1980  -36.7280   23.1310 C   0  0  0  0  0  1  0  0  0  0  0  0
  -25.4550  -36.3230   23.9160 C   0  0  0  0  0  3  0  0  0  0  0  0
  -27.6040  -37.2100   24.7070 C   0  0  0  0  0  1  0  0  0  0  0  0
  -26.4850  -37.3780   23.7850 N   0  0  0  0  0  0  0  0  0  0  0  0
  -26.0790  -38.2970   23.9440 H   0  0  0  0  0  0  0  0  0  0  0  0
  1  2  1  0
  2  6  1  0
  3  7  1  0
  5  8  1  0
  5  1  1  0
  5  3  1  0
  6  4  1  0
  6  9  1  0
  7 55  1  0
  7  4  1  0
  9 11  1  0
  9 10  1  0
 12  9  1  0
 12 13  1  0
 14 17  1  0
 15 14  1  0
 15 18  1  0
 17 19  1  0
 17 16  1  0
 18 13  1  0
 18 16  1  0
 20 25  1  0
 21 22  1  0
 21 20  1  0
 23 22  1  0
 23 30  1  0
 23 24  1  0
 25 19  1  0
 25 24  1  0
 26 19  2  0
 27 28  2  0
 28 47  1  0
 29 28  1  0
 29 32  1  0
 30 27  1  0
 30 31  1  0
 31 29  2  0
 32 33  1  0
 33 34  2  0
 35 38  1  0
 35 34  1  0
 36 35  2  0
 37 36  1  0
 37 32  2  0
 38 39  1  0
 39 40  1  0
 40 41  2  0
 42 41  1  0
 42 46  1  0
 43 42  2  0
 44 39  2  0
 44 43  1  0
 45 44  1  0
 47 48  1  0
 48 51  1  0
 48 50  1  0
 49 47  2  0
 52 53  1  0
 52 27  1  0
 54 52  1  0
 56 67  2  0
 57 55  1  0
 57 62  1  0
 58 66  1  0
 58 68  1  0
 59 65  1  0
 59 61  1  0
 60 66  1  0
 61 60  1  0
 62 61  2  0
 63 64  1  0
 63 57  2  0
 64 59  2  0
 65 58  1  0
 66 56  1  0
 68 70  2  0
 69 68  1  0
 71 69  1  0
 72 81  2  0
 72 77  1  0
 73 69  1  0
 73 77  1  0
 74 73  1  0
 75 76  1  0
 75 74  1  0
 76 72  1  0
 77 78  2  0
 78 79  1  0
 80 79  2  0
 81 80  1  0
 82 56  1  0
 82 87  1  0
 82 83  1  0
 83 86  1  1
 83 84  1  0
 85 83  1  0
 87 90  1  0
 88 92  1  0
 88 87  1  0
 89 88  2  0
 92 91  1  0
 94 92  1  0
 94 95  1  0
 94 93  1  0
M  ISO  4   7 101  17 100  19 100  55 101
M  END
>  <TORSDO>  (15) 
F 20

>  <SCORE>  (15) 
-13.930

>  <name>  (15) 
14

>  <ligand_id>  (15) 
14

>  <original_smiles>  (15) 
[H]c1c([H])c([H])c2c(c1[H])C([H])([H])C([H])([H])C([H])([H])C2([H])N([H])C(=O)C1([H])N(C(=O)C([H])(N([H])C(=O)C([H])(N([H])C([H])([H])[H])C([H])([H])[H])C(C([H])([H])[H])(C([H])([H])[H])C([H])([H])[H])C([H])([H])c2c([H])c(OC3([H])C([H])([H])C([H])(C([H])([H])[H])C([H])([H])C([H])([H])C([H])([N+]([H])([H])C([H])([H])C([H])([H])C4([H])C([H])([H])C([H])([H])C([H])(C(=O)N5C([H])([H])C([H])([H])C([H])([H])C([H])(n6nc(-c7c([H])c([H])c(Oc8c([H])c([H])c(F)c([H])c8F)c([H])c7[H])c(C(=O)N([H])[H])c6N([H])[H])C5([H])[H])C4([H])[H])C3([H])[H])c([H])c([H])c2C1([H])[H]

>  <smiles>  (15) 
[H]c1c([H])c([H])c2c(c1[H])C([H])([H])C([H])([H])C([H])([H])C2([H])N([H])C(=O)C1([H])N(C(=O)C([H])(N([H])C(=O)C([H])(N([H])C([H])([H])[H])C([H])([H])[H])C(C([H])([H])[H])(C([H])([H])[H])C([H])([H])[H])C([H])([H])c2c([H])c(OC3([H])C([H])([H])C([H])(C([H])([H])[H])C([H])([H])C([H])([H])C([H])([N+]([H])([H])C([H])([H])C([H])([H])C4([H])C([H])([H])C([H])([H])C([H])(C(=O)N5C([H])([H])C([H])([H])C([H])([H])C([H])(n6nc(-c7c([H])c([H])c(Oc8c([H])c([H])c(F)c([H])c8F)c([H])c7[H])c(C(=O)N([H])[H])c6N([H])[H])C5([H])[H])C4([H])[H])C3([H])[H])c([H])c([H])c2C1([H])[H]

$$$$
15:0:0
     RDKit          3D

 96106  0  0  1  0  0  0  0  0999 V2000
  -32.8380  -25.5570   20.0010 C   0  0  0  0  0  2  0  0  0  0  0  0
  -33.0000  -24.0350   19.8710 C   0  0  0  0  0  2  0  0  0  0  0  0
  -31.5730  -26.0450   19.2760 C   0  0  0  0  0  2  0  0  0  0  0  0
  -27.9330  -23.5930   19.6230 C   0  0  0  0  0  2  0  0  0  0  0  0
  -28.1780  -24.7030   18.5800 C   0  0  0  0  0  2  0  0  0  0  0  0
  -31.9220  -21.7580   20.2150 C   0  0  0  0  0  2  0  0  0  0  0  0
  -29.3970  -21.5000   20.0400 C   0  0  0  0  0  2  0  0  0  0  0  0
  -31.7640  -23.2830   20.4060 C   0  0  0  0  0  3  0  0  0  0  0  0
  -29.2450  -23.0330   20.2390 C   0  0  0  0  0  3  0  0  0  0  0  0
  -30.3140  -25.3320   19.8060 C   0  0  0  0  0  3  0  0  0  0  0  0
  -30.4870  -23.7840   19.6980 C   0  0  0  0  0  3  0  0  0  0  0  0
  -30.6950  -20.9250   20.6680 C   0  0  0  0  0  3  0  0  0  0  0  0
  -28.9950  -25.8850   19.1590 C   0  0  0  0  0  3  0  0  0  0  0  0
  -30.9240  -19.5000   20.2900 N   0  0  0  0  0  4  0  0  0  0  0  0
  -31.9030  -19.3230   20.4450 H   0  0  0  0  0  0  0  0  0  0  0  0
  -30.7630  -19.3980   19.3020 H   0  0  0  0  0  0  0  0  0  0  0  0
  -30.1940  -18.4240   21.0150 C   0  0  0  0  0  2  0  0  0  0  0  0
  -30.6430  -17.0380   20.4760 C   0  0  0  0  0  2  0  0  0  0  0  0
  -30.0900  -15.7410   21.1510 C   0  0  0  0  0  2  0  0  0  0  0  0
  -30.7010  -14.4660   20.5030 C   0  0  0  0  0  0  0  0  0  0  0  0
  -30.3520  -12.3080   19.3550 C   0  0  0  0  0  2  0  0  0  0  0  0
  -29.4170  -12.5330   18.1490 C   0  0  0  0  0  2  0  0  0  0  0  0
  -27.9430  -12.4070   18.5800 C   0  0  0  0  0  2  0  0  0  0  0  0
  -27.6170  -13.2390   19.8500 C   0  0  0  0  0  3  0  0  0  0  0  0
  -28.6760  -13.0300   20.9560 C   0  0  0  0  0  2  0  0  0  0  0  0
  -29.9990  -13.3050   20.3800 N   0  0  0  0  0  0  0  0  0  0  0  0
  -31.8220  -14.5860   20.0000 O   0  0  0  0  0  0  0  0  0  0  0  0
  -25.2180  -13.8440   20.5570 C   0  0  0  0  0  0  0  0  0  0  0  0
  -24.1510  -13.0710   20.9290 C   0  0  0  0  0  0  0  0  0  0  0  0
  -24.6110  -11.7190   20.8980 C   0  0  0  0  0  0  0  0  0  0  0  0
  -26.2640  -12.9630   20.3290 N   0  0  0  0  0  0  0  0  0  0  0  0
  -25.9010  -11.6800   20.5910 N   0  0  0  0  0  0  0  0  0  0  0  0
  -23.8830  -10.4580   21.0910 C   0  0  0  0  0  0  0  0  0  0  0  0
  -24.3330   -9.4780   22.0040 C   0  0  0  0  0  3  0  0  0  0  0  0
  -23.6060   -8.2820   22.1870 C   0  0  0  0  0  3  0  0  0  0  0  0
  -22.4160   -8.0550   21.4550 C   0  0  0  0  0  0  0  0  0  0  0  0
  -21.9840   -9.0250   20.5330 C   0  0  0  0  0  3  0  0  0  0  0  0
  -22.7100  -10.2130   20.3490 C   0  0  0  0  0  3  0  0  0  0  0  0
  -21.6600   -6.9120   21.5470 O   0  0  0  0  0  0  0  0  0  0  0  0
  -21.6550   -6.1420   22.6820 C   0  0  0  0  0  0  0  0  0  0  0  0
  -21.3090   -6.6760   23.9430 C   0  0  0  0  0  3  0  0  0  0  0  0
  -21.2500   -5.8340   25.0720 C   0  0  0  0  0  3  0  0  0  0  0  0
  -21.5270   -4.4600   24.9400 C   0  0  0  0  0  0  0  0  0  0  0  0
  -21.8660   -3.9250   23.6850 C   0  0  0  0  0  3  0  0  0  0  0  0
  -21.9270   -4.7640   22.5590 C   0  0  0  0  0  0  0  0  0  0  0  0
  -22.2330   -4.2410   21.3480 F   0  0  0  0  0  0  0  0  0  0  0  0
  -21.4620   -3.6490   26.0220 F   0  0  0  0  0  0  0  0  0  0  0  0
  -22.7540  -13.5490   21.2030 C   0  0  0  0  0  0  0  0  0  0  0  0
  -22.0310  -12.8560   22.0740 N   0  0  0  0  0  0  0  0  0  0  0  0
  -22.3140  -14.5730   20.6810 O   0  0  0  0  0  0  0  0  0  0  0  0
  -22.3990  -12.0240   22.5130 H   0  0  0  0  0  0  0  0  0  0  0  0
  -21.0950  -13.1560   22.3030 H   0  0  0  0  0  0  0  0  0  0  0  0
  -25.3830  -15.2150   20.3770 N   0  0  0  0  0  0  0  0  0  0  0  0
  -24.6170  -15.8700   20.4820 H   0  0  0  0  0  0  0  0  0  0  0  0
  -26.2350  -15.6510   20.0460 H   0  0  0  0  0  0  0  0  0  0  0  0
  -28.4060  -26.7000   20.1960 O   0  0  0  0  0  0  0  0  0  0  0  0
  -24.6310  -31.9030   23.2000 C   0  0  0  0  0  0  0  0  0  0  0  0
  -27.2370  -27.4340   20.0850 C   0  0  0  0  0  0  0  0  0  0  0  0
  -23.4020  -30.4880   21.5910 C   0  0  0  0  0  3  0  0  0  0  0  0
  -24.8340  -28.9500   20.1440 C   0  0  0  0  0  0  0  0  0  0  0  0
  -25.9270  -30.8440   21.3500 C   0  0  0  0  0  2  0  0  0  0  0  0
  -26.0040  -29.4730   20.7060 C   0  0  0  0  0  0  0  0  0  0  0  0
  -27.2020  -28.7230   20.6740 C   0  0  0  0  0  3  0  0  0  0  0  0
  -26.0310  -26.9130   19.5640 C   0  0  0  0  0  3  0  0  0  0  0  0
  -24.8430  -27.6690   19.5700 C   0  0  0  0  0  3  0  0  0  0  0  0
  -23.5900  -29.8060   20.2090 C   0  0  0  0  0  2  0  0  0  0  0  0
  -24.6740  -31.0880   22.1080 N   0  0  0  0  0  0  0  0  0  0  0  0
  -23.5520  -32.2020   23.7300 O   0  0  0  0  0  0  0  0  0  0  0  0
  -22.7640  -29.4710   22.5650 C   0  0  0  0  0  0  0  0  0  0  0  0
  -21.4380  -29.2840   22.4510 N   0  0  0  0  0  0  0  0  0  0  0  0
  -23.4570  -28.8520   23.3770 O   0  0  0  0  0  0  0  0  0  0  0  0
  -20.9390  -29.8360   21.7680 H   0  0  0  0  0  0  0  0  0  0  0  0
  -18.0760  -28.0630   22.9690 C   0  0  0  0  0  0  0  0  0  0  0  0
  -20.6320  -28.3480   23.2350 C   0  0  0  0  0  3  0  0  0  0  0  0
  -20.7460  -26.9100   22.6790 C   0  0  0  0  0  2  0  0  0  0  0  0
  -19.6490  -26.5630   21.6690 C   0  0  0  0  0  2  0  0  0  0  0  0
  -18.2660  -26.7060   22.3130 C   0  0  0  0  0  2  0  0  0  0  0  0
  -19.1870  -28.8410   23.3880 C   0  0  0  0  0  0  0  0  0  0  0  0
  -18.9570  -30.1110   23.9590 C   0  0  0  0  0  3  0  0  0  0  0  0
  -17.6480  -30.6030   24.1180 C   0  0  0  0  0  3  0  0  0  0  0  0
  -16.5520  -29.8230   23.7140 C   0  0  0  0  0  3  0  0  0  0  0  0
  -16.7660  -28.5550   23.1440 C   0  0  0  0  0  3  0  0  0  0  0  0
  -25.9260  -32.5270   23.8100 C   0  0  0  0  0  3  0  0  0  0  0  0
  -26.4720  -31.7370   25.0630 C   0  0  1  0  0  0  0  0  0  0  0  0
  -25.4010  -31.4690   26.1430 C   0  0  0  0  0  1  0  0  0  0  0  0
  -27.0620  -30.3750   24.6330 C   0  0  0  0  0  1  0  0  0  0  0  0
  -27.6260  -32.5300   25.7210 C   0  0  0  0  0  1  0  0  0  0  0  0
  -25.6190  -33.9170   24.1670 N   0  0  0  0  0  0  0  0  0  0  0  0
  -25.9270  -34.9800   23.4110 C   0  0  0  0  0  0  0  0  0  0  0  0
  -26.5710  -34.8930   22.3640 O   0  0  0  0  0  0  0  0  0  0  0  0
  -25.0340  -34.0560   24.9780 H   0  0  0  0  0  0  0  0  0  0  0  0
  -24.1700  -36.7560   23.1290 C   0  0  0  0  0  1  0  0  0  0  0  0
  -25.4390  -36.3580   23.8970 C   0  0  0  0  0  3  0  0  0  0  0  0
  -27.5940  -37.2510   24.6640 C   0  0  0  0  0  1  0  0  0  0  0  0
  -26.4580  -37.4220   23.7630 N   0  0  0  0  0  0  0  0  0  0  0  0
  -26.0470  -38.3350   23.9400 H   0  0  0  0  0  0  0  0  0  0  0  0
  2  1  1  0
  3  1  1  0
  5 13  1  0
  5  4  1  0
  6  8  1  0
  6 12  1  0
  7  9  1  0
  7 12  1  0
  8  2  1  0
  9  4  1  0
 10  3  1  0
 11 10  1  0
 11  9  1  0
 11  8  1  0
 13 10  1  0
 13 56  1  0
 14 15  1  0
 14 12  1  0
 14 17  1  0
 16 14  1  0
 18 17  1  0
 18 19  1  0
 20 19  1  0
 21 26  1  0
 22 23  1  0
 22 21  1  0
 23 24  1  0
 24 31  1  0
 24 25  1  0
 26 20  1  0
 26 25  1  0
 27 20  2  0
 28 29  2  0
 29 48  1  0
 30 29  1  0
 30 33  1  0
 31 28  1  0
 31 32  1  0
 32 30  2  0
 33 34  1  0
 34 35  2  0
 36 39  1  0
 36 35  1  0
 37 36  2  0
 38 37  1  0
 38 33  2  0
 39 40  1  0
 40 41  1  0
 41 42  2  0
 43 42  1  0
 43 47  1  0
 44 43  2  0
 45 40  2  0
 45 44  1  0
 46 45  1  0
 48 49  1  0
 49 52  1  0
 49 51  1  0
 50 48  2  0
 53 54  1  0
 53 28  1  0
 55 53  1  0
 57 68  2  0
 57 83  1  0
 58 56  1  0
 58 63  1  0
 59 67  1  0
 59 69  1  0
 60 66  1  0
 60 62  1  0
 61 67  1  0
 62 61  1  0
 63 62  2  0
 64 65  1  0
 64 58  2  0
 65 60  2  0
 66 59  1  0
 67 57  1  0
 69 71  2  0
 70 69  1  0
 70 74  1  0
 72 70  1  0
 73 82  2  0
 73 78  1  0
 74 78  1  0
 75 74  1  0
 76 77  1  0
 76 75  1  0
 77 73  1  0
 78 79  2  0
 79 80  1  0
 81 80  2  0
 82 81  1  0
 83 88  1  0
 83 84  1  0
 84 87  1  1
 84 85  1  0
 86 84  1  0
 88 91  1  0
 89 93  1  0
 89 88  1  0
 90 89  2  0
 92 93  1  0
 95 93  1  0
 95 96  1  0
 95 94  1  0
M  ISO  4  13 101  19 100  20 100  56 101
M  END
>  <TORSDO>  (16) 
F 20

>  <SCORE>  (16) 
-13.760

>  <name>  (16) 
15

>  <ligand_id>  (16) 
15

>  <original_smiles>  (16) 
[H]c1c([H])c([H])c2c(c1[H])C([H])([H])C([H])([H])C([H])([H])C2([H])N([H])C(=O)C1([H])N(C(=O)C([H])(N([H])C(=O)C([H])(N([H])C([H])([H])[H])C([H])([H])[H])C(C([H])([H])[H])(C([H])([H])[H])C([H])([H])[H])C([H])([H])c2c([H])c(OC3([H])C([H])([H])C([H])([H])C4([H])C([H])([H])C([H])([N+]([H])([H])C([H])([H])C([H])([H])C([H])([H])C(=O)N5C([H])([H])C([H])([H])C([H])([H])C([H])(n6nc(-c7c([H])c([H])c(Oc8c([H])c([H])c(F)c([H])c8F)c([H])c7[H])c(C(=O)N([H])[H])c6N([H])[H])C5([H])[H])C([H])([H])C5([H])C([H])([H])C([H])([H])C([H])([H])C3([H])C54[H])c([H])c([H])c2C1([H])[H]

>  <smiles>  (16) 
[H]c1c([H])c([H])c2c(c1[H])C([H])([H])C([H])([H])C([H])([H])C2([H])N([H])C(=O)C1([H])N(C(=O)C([H])(N([H])C(=O)C([H])(N([H])C([H])([H])[H])C([H])([H])[H])C(C([H])([H])[H])(C([H])([H])[H])C([H])([H])[H])C([H])([H])c2c([H])c(OC3([H])C([H])([H])C([H])([H])C4([H])C([H])([H])C([H])([N+]([H])([H])C([H])([H])C([H])([H])C([H])([H])C(=O)N5C([H])([H])C([H])([H])C([H])([H])C([H])(n6nc(-c7c([H])c([H])c(Oc8c([H])c([H])c(F)c([H])c8F)c([H])c7[H])c(C(=O)N([H])[H])c6N([H])[H])C5([H])[H])C([H])([H])C5([H])C([H])([H])C([H])([H])C([H])([H])C3([H])C54[H])c([H])c([H])c2C1([H])[H]

$$$$
16:0:0
     RDKit          3D

 94102  0  0  1  0  0  0  0  0999 V2000
  -28.9760  -23.9740   20.5090 C   0  0  0  0  0  0  0  0  0  0  0  0
  -29.9160  -24.3580   21.3820 N   0  0  0  0  0  4  0  0  0  0  0  0
  -28.8160  -22.6550   20.1490 N   0  0  0  0  0  0  0  0  0  0  0  0
  -29.9630  -25.3340   21.6350 H   0  0  0  0  0  0  0  0  0  0  0  0
  -30.5500  -23.7150   21.8260 H   0  0  0  0  0  0  0  0  0  0  0  0
  -28.0670  -22.4480   19.4980 H   0  0  0  0  0  0  0  0  0  0  0  0
  -31.0190  -21.4780   19.9850 C   0  0  0  0  0  1  0  0  0  0  0  0
  -29.5680  -21.3960   20.5110 C   0  0  0  0  0  3  0  0  0  0  0  0
  -30.6470  -14.6490   20.4300 C   0  0  0  0  0  0  0  0  0  0  0  0
  -30.3800  -12.4020   19.4240 C   0  0  0  0  0  2  0  0  0  0  0  0
  -29.4620  -12.5270   18.1920 C   0  0  0  0  0  2  0  0  0  0  0  0
  -27.9870  -12.3720   18.6090 C   0  0  0  0  0  2  0  0  0  0  0  0
  -27.6120  -13.2570   19.8290 C   0  0  0  0  0  3  0  0  0  0  0  0
  -28.6620  -13.1680   20.9580 C   0  0  0  0  0  2  0  0  0  0  0  0
  -29.9740  -13.4600   20.3670 N   0  0  0  0  0  0  0  0  0  0  0  0
  -31.8490  -14.7180   20.1580 O   0  0  0  0  0  0  0  0  0  0  0  0
  -28.8390  -20.1260   19.9360 C   0  0  0  0  0  0  0  0  0  0  0  0
  -28.6110  -17.7010   19.4140 C   0  0  0  0  0  2  0  0  0  0  0  0
  -30.3310  -18.3510   21.0400 C   0  0  0  0  0  2  0  0  0  0  0  0
  -29.5340  -16.4590   19.2310 C   0  0  0  0  0  2  0  0  0  0  0  0
  -30.1950  -16.8480   21.5270 C   0  0  0  0  0  2  0  0  0  0  0  0
  -29.2540  -18.8230   20.1400 N   0  0  0  0  0  0  0  0  0  0  0  0
  -29.9040  -15.8060   20.5030 N   0  0  0  0  0  0  0  0  0  0  0  0
  -27.8430  -20.3580   19.2400 O   0  0  0  0  0  0  0  0  0  0  0  0
  -25.2160  -13.8630   20.5190 C   0  0  0  0  0  0  0  0  0  0  0  0
  -24.1440  -13.0950   20.8790 C   0  0  0  0  0  0  0  0  0  0  0  0
  -24.6050  -11.7410   20.8650 C   0  0  0  0  0  0  0  0  0  0  0  0
  -26.2620  -12.9790   20.3060 N   0  0  0  0  0  0  0  0  0  0  0  0
  -25.9000  -11.6980   20.5760 N   0  0  0  0  0  0  0  0  0  0  0  0
  -23.8750  -10.4830   21.0520 C   0  0  0  0  0  0  0  0  0  0  0  0
  -24.2990   -9.5150   21.9890 C   0  0  0  0  0  3  0  0  0  0  0  0
  -23.5690   -8.3200   22.1660 C   0  0  0  0  0  3  0  0  0  0  0  0
  -22.3990   -8.0850   21.4060 C   0  0  0  0  0  0  0  0  0  0  0  0
  -21.9930   -9.0410   20.4570 C   0  0  0  0  0  3  0  0  0  0  0  0
  -22.7240  -10.2260   20.2790 C   0  0  0  0  0  3  0  0  0  0  0  0
  -21.6410   -6.9420   21.4920 O   0  0  0  0  0  0  0  0  0  0  0  0
  -21.5930   -6.1950   22.6410 C   0  0  0  0  0  0  0  0  0  0  0  0
  -21.1730   -6.7450   23.8710 C   0  0  0  0  0  3  0  0  0  0  0  0
  -21.0710   -5.9240   25.0120 C   0  0  0  0  0  3  0  0  0  0  0  0
  -21.3820   -4.5540   24.9240 C   0  0  0  0  0  0  0  0  0  0  0  0
  -21.7970   -4.0030   23.6990 C   0  0  0  0  0  3  0  0  0  0  0  0
  -21.8990   -4.8220   22.5600 C   0  0  0  0  0  0  0  0  0  0  0  0
  -22.2790   -4.2810   21.3770 F   0  0  0  0  0  0  0  0  0  0  0  0
  -21.2770   -3.7630   26.0170 F   0  0  0  0  0  0  0  0  0  0  0  0
  -22.7440  -13.5740   21.1270 C   0  0  0  0  0  0  0  0  0  0  0  0
  -22.0050  -12.8850   21.9890 N   0  0  0  0  0  0  0  0  0  0  0  0
  -22.3150  -14.5950   20.5920 O   0  0  0  0  0  0  0  0  0  0  0  0
  -22.3680  -12.0600   22.4410 H   0  0  0  0  0  0  0  0  0  0  0  0
  -21.0650  -13.1880   22.1990 H   0  0  0  0  0  0  0  0  0  0  0  0
  -25.3860  -15.2320   20.3360 N   0  0  0  0  0  0  0  0  0  0  0  0
  -24.6190  -15.8890   20.4330 H   0  0  0  0  0  0  0  0  0  0  0  0
  -26.2510  -15.6660   20.0430 H   0  0  0  0  0  0  0  0  0  0  0  0
  -28.0360  -25.0490   19.9400 C   0  0  0  0  0  2  0  0  0  0  0  0
  -28.2920  -26.4750   20.2510 O   0  0  0  0  0  0  0  0  0  0  0  0
  -24.6020  -31.8910   23.2610 C   0  0  0  0  0  0  0  0  0  0  0  0
  -27.1920  -27.3470   20.1750 C   0  0  0  0  0  0  0  0  0  0  0  0
  -23.3920  -30.4990   21.6260 C   0  0  0  0  0  3  0  0  0  0  0  0
  -24.8350  -28.9660   20.1800 C   0  0  0  0  0  0  0  0  0  0  0  0
  -25.9330  -30.8100   21.4430 C   0  0  0  0  0  2  0  0  0  0  0  0
  -26.0060  -29.4400   20.7850 C   0  0  0  0  0  0  0  0  0  0  0  0
  -27.1870  -28.6380   20.7820 C   0  0  0  0  0  3  0  0  0  0  0  0
  -26.0040  -26.9420   19.5190 C   0  0  0  0  0  3  0  0  0  0  0  0
  -24.8360  -27.7210   19.5390 C   0  0  0  0  0  3  0  0  0  0  0  0
  -23.6000  -29.8390   20.2390 C   0  0  0  0  0  2  0  0  0  0  0  0
  -24.6610  -31.0810   22.1680 N   0  0  0  0  0  0  0  0  0  0  0  0
  -23.5170  -32.1940   23.7760 O   0  0  0  0  0  0  0  0  0  0  0  0
  -22.7340  -29.4730   22.5790 C   0  0  0  0  0  0  0  0  0  0  0  0
  -21.4090  -29.2860   22.4450 N   0  0  0  0  0  0  0  0  0  0  0  0
  -23.4120  -28.8470   23.3980 O   0  0  0  0  0  0  0  0  0  0  0  0
  -20.9220  -29.8430   21.7560 H   0  0  0  0  0  0  0  0  0  0  0  0
  -18.0350  -28.0710   22.9190 C   0  0  0  0  0  0  0  0  0  0  0  0
  -20.5900  -28.3450   23.2090 C   0  0  0  0  0  3  0  0  0  0  0  0
  -20.7050  -26.9130   22.6350 C   0  0  0  0  0  2  0  0  0  0  0  0
  -19.6120  -26.5840   21.6130 C   0  0  0  0  0  2  0  0  0  0  0  0
  -18.2240  -26.7230   22.2450 C   0  0  0  0  0  2  0  0  0  0  0  0
  -19.1460  -28.8390   23.3570 C   0  0  0  0  0  0  0  0  0  0  0  0
  -18.9160  -30.1020   23.9450 C   0  0  0  0  0  3  0  0  0  0  0  0
  -17.6060  -30.5960   24.1010 C   0  0  0  0  0  3  0  0  0  0  0  0
  -16.5100  -29.8240   23.6780 C   0  0  0  0  0  3  0  0  0  0  0  0
  -16.7250  -28.5640   23.0930 C   0  0  0  0  0  3  0  0  0  0  0  0
  -25.8890  -32.5060   23.8930 C   0  0  0  0  0  3  0  0  0  0  0  0
  -25.5900  -33.9070   24.2230 N   0  0  0  0  0  0  0  0  0  0  0  0
  -25.9140  -34.9540   23.4550 C   0  0  0  0  0  0  0  0  0  0  0  0
  -26.5680  -34.8430   22.4140 O   0  0  0  0  0  0  0  0  0  0  0  0
  -25.0070  -34.0660   25.0310 H   0  0  0  0  0  0  0  0  0  0  0  0
  -24.1770  -36.7440   23.1230 C   0  0  0  0  0  1  0  0  0  0  0  0
  -25.4350  -36.3450   23.9120 C   0  0  0  0  0  3  0  0  0  0  0  0
  -27.5870  -37.2350   24.6920 C   0  0  0  0  0  1  0  0  0  0  0  0
  -26.4650  -37.3970   23.7710 N   0  0  0  0  0  0  0  0  0  0  0  0
  -26.0630  -38.3190   23.9200 H   0  0  0  0  0  0  0  0  0  0  0  0
  -26.3930  -31.7310   25.1720 C   0  0  1  0  0  0  0  0  0  0  0  0
  -25.2920  -31.5020   26.2330 C   0  0  0  0  0  1  0  0  0  0  0  0
  -26.9730  -30.3500   24.7850 C   0  0  0  0  0  1  0  0  0  0  0  0
  -27.5490  -32.5180   25.8360 C   0  0  0  0  0  1  0  0  0  0  0  0
  1  2  2  0
  2  4  1  0
  2  5  1  0
  3  1  1  0
  3  8  1  0
  6  3  1  0
  8  7  1  0
  9 23  1  0
 10 15  1  0
 11 12  1  0
 11 10  1  0
 13 12  1  0
 13 28  1  0
 13 14  1  0
 15  9  1  0
 15 14  1  0
 16  9  2  0
 17 22  1  0
 17  8  1  0
 18 22  1  0
 19 21  1  0
 20 18  1  0
 20 23  1  0
 22 19  1  0
 23 21  1  0
 24 17  2  0
 25 26  2  0
 26 45  1  0
 27 26  1  0
 27 30  1  0
 28 25  1  0
 28 29  1  0
 29 27  2  0
 30 31  1  0
 31 32  2  0
 33 36  1  0
 33 32  1  0
 34 33  2  0
 35 34  1  0
 35 30  2  0
 36 37  1  0
 37 38  1  0
 38 39  2  0
 40 39  1  0
 40 44  1  0
 41 40  2  0
 42 37  2  0
 42 41  1  0
 43 42  1  0
 45 46  1  0
 46 49  1  0
 46 48  1  0
 47 45  2  0
 50 51  1  0
 50 25  1  0
 52 50  1  0
 53 54  1  0
 53  1  1  0
 55 66  2  0
 56 54  1  0
 56 61  1  0
 57 65  1  0
 57 67  1  0
 58 64  1  0
 58 60  1  0
 59 65  1  0
 60 59  1  0
 61 60  2  0
 62 63  1  0
 62 56  2  0
 63 58  2  0
 64 57  1  0
 65 55  1  0
 67 69  2  0
 68 67  1  0
 70 68  1  0
 71 80  2  0
 71 76  1  0
 72 68  1  0
 72 76  1  0
 73 72  1  0
 74 75  1  0
 74 73  1  0
 75 71  1  0
 76 77  2  0
 77 78  1  0
 79 78  2  0
 80 79  1  0
 81 55  1  0
 81 82  1  0
 81 91  1  0
 82 85  1  0
 83 87  1  0
 83 82  1  0
 84 83  2  0
 87 86  1  0
 89 87  1  0
 89 90  1  0
 89 88  1  0
 91 94  1  1
 91 92  1  0
 93 91  1  0
M  ISO  4   9 100  23 100  53 101  54 101
M  END
>  <TORSDO>  (17) 
F 18

>  <SCORE>  (17) 
-14.913

>  <name>  (17) 
16

>  <ligand_id>  (17) 
16

>  <original_smiles>  (17) 
[H]c1c([H])c([H])c2c(c1[H])C([H])([H])C([H])([H])C([H])([H])C2([H])N([H])C(=O)C1([H])N(C(=O)C([H])(N([H])C(=O)C([H])(N([H])C([H])([H])[H])C([H])([H])[H])C(C([H])([H])[H])(C([H])([H])[H])C([H])([H])[H])C([H])([H])c2c([H])c(OC([H])([H])C(N([H])[H])=[N+]([H])C([H])(C(=O)N3C([H])([H])C([H])([H])N(C(=O)N4C([H])([H])C([H])([H])C([H])([H])C([H])(n5nc(-c6c([H])c([H])c(Oc7c([H])c([H])c(F)c([H])c7F)c([H])c6[H])c(C(=O)N([H])[H])c5N([H])[H])C4([H])[H])C([H])([H])C3([H])[H])C([H])([H])[H])c([H])c([H])c2C1([H])[H]

>  <smiles>  (17) 
[H]c1c([H])c([H])c2c(c1[H])C([H])([H])C([H])([H])C([H])([H])C2([H])N([H])C(=O)C1([H])N(C(=O)C([H])(N([H])C(=O)C([H])(N([H])C([H])([H])[H])C([H])([H])[H])C(C([H])([H])[H])(C([H])([H])[H])C([H])([H])[H])C([H])([H])c2c([H])c(OC([H])([H])C(N([H])[H])=[N+]([H])C([H])(C(=O)N3C([H])([H])C([H])([H])N(C(=O)N4C([H])([H])C([H])([H])C([H])([H])C([H])(n5nc(-c6c([H])c([H])c(Oc7c([H])c([H])c(F)c([H])c7F)c([H])c6[H])c(C(=O)N([H])[H])c5N([H])[H])C4([H])[H])C([H])([H])C3([H])[H])C([H])([H])[H])c([H])c([H])c2C1([H])[H]

$$$$
17:0:0
     RDKit          3D

 96105  0  0  1  0  0  0  0  0999 V2000
  -29.5780  -22.2990   16.3020 C   0  0  0  0  0  3  0  0  0  0  0  0
  -29.1820  -21.0250   16.7460 C   0  0  0  0  0  3  0  0  0  0  0  0
  -29.3250  -21.7880   19.0450 C   0  0  0  0  0  3  0  0  0  0  0  0
  -29.8630  -23.3220   17.2220 C   0  0  0  0  0  0  0  0  0  0  0  0
  -29.7240  -23.0720   18.6070 C   0  0  0  0  0  0  0  0  0  0  0  0
  -29.0610  -20.7390   18.1290 C   0  0  0  0  0  0  0  0  0  0  0  0
  -30.3170  -24.6720   16.6980 C   0  0  0  0  0  2  0  0  0  0  0  0
  -30.0200  -24.1510   19.6510 C   0  0  0  0  0  2  0  0  0  0  0  0
  -31.0610  -25.4900   17.7590 C   0  0  0  0  0  2  0  0  0  0  0  0
  -30.3000  -25.5760   19.1010 C   0  0  2  0  0  0  0  0  0  0  0  0
  -31.1910  -26.3460   20.1010 C   0  0  0  0  0  1  0  0  0  0  0  0
  -28.1380  -18.5290   17.6000 C   0  0  0  0  0  1  0  0  0  0  0  0
  -28.7020  -19.4490   18.5930 N   0  0  0  0  0  0  0  0  0  0  0  0
  -29.5500  -18.9190   19.6790 C   0  0  0  0  0  2  0  0  0  0  0  0
  -29.3360  -17.4150   19.9830 C   0  0  0  0  0  2  0  0  0  0  0  0
  -30.2580  -16.8310   21.0750 C   0  0  0  0  0  2  0  0  0  0  0  0
  -30.7030  -14.4270   20.5490 C   0  0  0  0  0  0  0  0  0  0  0  0
  -30.3970  -12.3060   19.3360 C   0  0  0  0  0  2  0  0  0  0  0  0
  -29.4590  -12.5500   18.1360 C   0  0  0  0  0  2  0  0  0  0  0  0
  -27.9810  -12.4240   18.5580 C   0  0  0  0  0  2  0  0  0  0  0  0
  -27.6500  -13.2220   19.8470 C   0  0  0  0  0  3  0  0  0  0  0  0
  -28.6990  -12.9470   20.9500 C   0  0  0  0  0  2  0  0  0  0  0  0
  -30.0320  -13.2550   20.3980 N   0  0  0  0  0  0  0  0  0  0  0  0
  -31.7870  -14.6610   20.0070 O   0  0  0  0  0  0  0  0  0  0  0  0
  -30.0290  -15.3860   21.2030 N   0  0  0  0  0  0  0  0  0  0  0  0
  -29.1780  -15.1020   21.6650 H   0  0  0  0  0  0  0  0  0  0  0  0
  -25.2330  -13.8150   20.5160 C   0  0  0  0  0  0  0  0  0  0  0  0
  -24.1660  -13.0380   20.8830 C   0  0  0  0  0  0  0  0  0  0  0  0
  -24.6370  -11.6900   20.8630 C   0  0  0  0  0  0  0  0  0  0  0  0
  -26.2900  -12.9410   20.3070 N   0  0  0  0  0  0  0  0  0  0  0  0
  -25.9310  -11.6570   20.5680 N   0  0  0  0  0  0  0  0  0  0  0  0
  -23.9170  -10.4250   21.0550 C   0  0  0  0  0  0  0  0  0  0  0  0
  -24.3580   -9.4600   21.9870 C   0  0  0  0  0  3  0  0  0  0  0  0
  -23.6390   -8.2580   22.1690 C   0  0  0  0  0  3  0  0  0  0  0  0
  -22.4660   -8.0140   21.4180 C   0  0  0  0  0  0  0  0  0  0  0  0
  -22.0440   -8.9660   20.4740 C   0  0  0  0  0  3  0  0  0  0  0  0
  -22.7630  -10.1600   20.2910 C   0  0  0  0  0  3  0  0  0  0  0  0
  -21.7200   -6.8630   21.5060 O   0  0  0  0  0  0  0  0  0  0  0  0
  -21.6870   -6.1130   22.6550 C   0  0  0  0  0  0  0  0  0  0  0  0
  -21.2750   -6.6600   23.8900 C   0  0  0  0  0  3  0  0  0  0  0  0
  -21.1910   -5.8370   25.0310 C   0  0  0  0  0  3  0  0  0  0  0  0
  -21.5080   -4.4680   24.9380 C   0  0  0  0  0  0  0  0  0  0  0  0
  -21.9140   -3.9210   23.7080 C   0  0  0  0  0  3  0  0  0  0  0  0
  -21.9990   -4.7410   22.5690 C   0  0  0  0  0  0  0  0  0  0  0  0
  -22.3700   -4.2050   21.3810 F   0  0  0  0  0  0  0  0  0  0  0  0
  -21.4200   -3.6750   26.0320 F   0  0  0  0  0  0  0  0  0  0  0  0
  -22.7660  -13.5080   21.1440 C   0  0  0  0  0  0  0  0  0  0  0  0
  -22.0400  -12.8110   22.0120 N   0  0  0  0  0  0  0  0  0  0  0  0
  -22.3220  -14.5270   20.6180 O   0  0  0  0  0  0  0  0  0  0  0  0
  -22.4150  -11.9880   22.4590 H   0  0  0  0  0  0  0  0  0  0  0  0
  -21.0990  -13.1030   22.2320 H   0  0  0  0  0  0  0  0  0  0  0  0
  -25.3880  -15.1850   20.3340 N   0  0  0  0  0  0  0  0  0  0  0  0
  -24.6100  -15.8310   20.4240 H   0  0  0  0  0  0  0  0  0  0  0  0
  -26.2410  -15.6330   20.0200 H   0  0  0  0  0  0  0  0  0  0  0  0
  -28.9680  -26.3470   18.9000 C   0  0  0  0  0  2  0  0  0  0  0  0
  -28.4590  -26.7800   20.1560 O   0  0  0  0  0  0  0  0  0  0  0  0
  -24.6330  -31.8930   23.2340 C   0  0  0  0  0  0  0  0  0  0  0  0
  -27.2820  -27.4840   20.1290 C   0  0  0  0  0  0  0  0  0  0  0  0
  -23.4230  -30.4850   21.5980 C   0  0  0  0  0  3  0  0  0  0  0  0
  -24.8760  -28.9530   20.1640 C   0  0  0  0  0  0  0  0  0  0  0  0
  -25.9440  -30.8510   21.3960 C   0  0  0  0  0  2  0  0  0  0  0  0
  -26.0290  -29.4830   20.7570 C   0  0  0  0  0  0  0  0  0  0  0  0
  -27.2310  -28.7480   20.7510 C   0  0  0  0  0  3  0  0  0  0  0  0
  -26.1150  -26.9530   19.5400 C   0  0  0  0  0  3  0  0  0  0  0  0
  -24.9110  -27.6830   19.5600 C   0  0  0  0  0  3  0  0  0  0  0  0
  -23.6290  -29.8060   20.2170 C   0  0  0  0  0  2  0  0  0  0  0  0
  -24.6840  -31.0880   22.1360 N   0  0  0  0  0  0  0  0  0  0  0  0
  -23.5490  -32.1870   23.7570 O   0  0  0  0  0  0  0  0  0  0  0  0
  -22.7770  -29.4620   22.5590 C   0  0  0  0  0  0  0  0  0  0  0  0
  -21.4530  -29.2790   22.4340 N   0  0  0  0  0  0  0  0  0  0  0  0
  -23.4630  -28.8350   23.3720 O   0  0  0  0  0  0  0  0  0  0  0  0
  -20.9610  -29.8350   21.7490 H   0  0  0  0  0  0  0  0  0  0  0  0
  -18.0790  -28.0860   22.9310 C   0  0  0  0  0  0  0  0  0  0  0  0
  -20.6360  -28.3390   23.2020 C   0  0  0  0  0  3  0  0  0  0  0  0
  -20.7370  -26.9110   22.6190 C   0  0  0  0  0  2  0  0  0  0  0  0
  -19.6330  -26.5940   21.6040 C   0  0  0  0  0  2  0  0  0  0  0  0
  -18.2520  -26.7400   22.2510 C   0  0  0  0  0  2  0  0  0  0  0  0
  -19.1980  -28.8450   23.3630 C   0  0  0  0  0  0  0  0  0  0  0  0
  -18.9830  -30.1070   23.9570 C   0  0  0  0  0  3  0  0  0  0  0  0
  -17.6810  -30.6120   24.1260 C   0  0  0  0  0  3  0  0  0  0  0  0
  -16.5740  -29.8500   23.7110 C   0  0  0  0  0  3  0  0  0  0  0  0
  -16.7740  -28.5890   23.1190 C   0  0  0  0  0  3  0  0  0  0  0  0
  -25.9230  -32.5110   23.8600 C   0  0  0  0  0  3  0  0  0  0  0  0
  -25.6200  -33.9070   24.2010 N   0  0  0  0  0  0  0  0  0  0  0  0
  -25.9460  -34.9610   23.4430 C   0  0  0  0  0  0  0  0  0  0  0  0
  -26.6090  -34.8620   22.4050 O   0  0  0  0  0  0  0  0  0  0  0  0
  -25.0310  -34.0590   25.0070 H   0  0  0  0  0  0  0  0  0  0  0  0
  -24.2110  -36.7500   23.1080 C   0  0  0  0  0  1  0  0  0  0  0  0
  -25.4610  -36.3470   23.9080 C   0  0  0  0  0  3  0  0  0  0  0  0
  -27.6030  -37.2300   24.7220 C   0  0  0  0  0  1  0  0  0  0  0  0
  -26.4910  -37.4020   23.7890 N   0  0  0  0  0  0  0  0  0  0  0  0
  -26.0850  -38.3210   23.9450 H   0  0  0  0  0  0  0  0  0  0  0  0
  -26.4470  -31.7280   25.1260 C   0  0  1  0  0  0  0  0  0  0  0  0
  -25.3590  -31.4810   26.1950 C   0  0  0  0  0  1  0  0  0  0  0  0
  -27.0280  -30.3550   24.7150 C   0  0  0  0  0  1  0  0  0  0  0  0
  -27.6030  -32.5160   25.7890 C   0  0  0  0  0  1  0  0  0  0  0  0
  1  2  2  0
  1  4  1  0
  2  6  1  0
  4  5  2  0
  5  3  1  0
  5  8  1  0
  6 13  1  0
  6  3  2  0
  7  4  1  0
  7  9  1  0
  9 10  1  0
 10  8  1  0
 10 11  1  1
 12 13  1  0
 13 14  1  0
 14 15  1  0
 15 16  1  0
 16 25  1  0
 17 25  1  0
 18 23  1  0
 19 20  1  0
 19 18  1  0
 21 20  1  0
 21 30  1  0
 21 22  1  0
 23 17  1  0
 23 22  1  0
 24 17  2  0
 25 26  1  0
 27 28  2  0
 28 47  1  0
 29 28  1  0
 29 32  1  0
 30 27  1  0
 30 31  1  0
 31 29  2  0
 32 33  1  0
 33 34  2  0
 35 38  1  0
 35 34  1  0
 36 35  2  0
 37 36  1  0
 37 32  2  0
 38 39  1  0
 39 40  1  0
 40 41  2  0
 42 41  1  0
 42 46  1  0
 43 42  2  0
 44 39  2  0
 44 43  1  0
 45 44  1  0
 47 48  1  0
 48 51  1  0
 48 50  1  0
 49 47  2  0
 52 53  1  0
 52 27  1  0
 54 52  1  0
 55 10  1  0
 55 56  1  0
 57 68  2  0
 58 56  1  0
 58 63  1  0
 59 67  1  0
 59 69  1  0
 60 66  1  0
 60 62  1  0
 61 67  1  0
 62 61  1  0
 63 62  2  0
 64 65  1  0
 64 58  2  0
 65 60  2  0
 66 59  1  0
 67 57  1  0
 69 71  2  0
 70 69  1  0
 72 70  1  0
 73 82  2  0
 73 78  1  0
 74 70  1  0
 74 78  1  0
 75 74  1  0
 76 77  1  0
 76 75  1  0
 77 73  1  0
 78 79  2  0
 79 80  1  0
 81 80  2  0
 82 81  1  0
 83 57  1  0
 83 84  1  0
 83 93  1  0
 84 87  1  0
 85 89  1  0
 85 84  1  0
 86 85  2  0
 89 88  1  0
 91 89  1  0
 91 92  1  0
 91 90  1  0
 93 96  1  1
 93 94  1  0
 95 93  1  0
M  ISO  4  17 100  25 100  55 101  56 101
M  END
>  <TORSDO>  (18) 
F 21

>  <SCORE>  (18) 
-13.495

>  <name>  (18) 
17

>  <ligand_id>  (18) 
17

>  <original_smiles>  (18) 
[H]c1c([H])c([H])c2c(c1[H])C([H])([H])C([H])([H])C([H])([H])C2([H])N([H])C(=O)C1([H])N(C(=O)C([H])(N([H])C(=O)C([H])(N([H])C([H])([H])[H])C([H])([H])[H])C(C([H])([H])[H])(C([H])([H])[H])C([H])([H])[H])C([H])([H])c2c([H])c(OC([H])([H])C3(C([H])([H])[H])C([H])([H])c4c([H])c(N(C([H])([H])[H])C([H])([H])C([H])([H])C([H])([H])N([H])C(=O)N5C([H])([H])C([H])([H])C([H])([H])C([H])(n6nc(-c7c([H])c([H])c(Oc8c([H])c([H])c(F)c([H])c8F)c([H])c7[H])c(C(=O)N([H])[H])c6N([H])[H])C5([H])[H])c([H])c([H])c4C([H])([H])C3([H])[H])c([H])c([H])c2C1([H])[H]

>  <smiles>  (18) 
[H]c1c([H])c([H])c2c(c1[H])C([H])([H])C([H])([H])C([H])([H])C2([H])N([H])C(=O)C1([H])N(C(=O)C([H])(N([H])C(=O)C([H])(N([H])C([H])([H])[H])C([H])([H])[H])C(C([H])([H])[H])(C([H])([H])[H])C([H])([H])[H])C([H])([H])c2c([H])c(OC([H])([H])C3(C([H])([H])[H])C([H])([H])c4c([H])c(N(C([H])([H])[H])C([H])([H])C([H])([H])C([H])([H])N([H])C(=O)N5C([H])([H])C([H])([H])C([H])([H])C([H])(n6nc(-c7c([H])c([H])c(Oc8c([H])c([H])c(F)c([H])c8F)c([H])c7[H])c(C(=O)N([H])[H])c6N([H])[H])C5([H])[H])c([H])c([H])c4C([H])([H])C3([H])[H])c([H])c([H])c2C1([H])[H]

$$$$
18:0:0
     RDKit          3D

 97106  0  0  1  0  0  0  0  0999 V2000
  -29.5450  -20.7020   19.1640 C   0  0  0  0  0  3  0  0  0  0  0  0
  -29.7540  -22.0460   18.7870 C   0  0  0  0  0  3  0  0  0  0  0  0
  -31.8420  -22.0630   20.0190 C   0  0  0  0  0  3  0  0  0  0  0  0
  -30.5110  -19.9990   19.9250 C   0  0  0  0  0  0  0  0  0  0  0  0
  -30.9220  -22.7290   19.1830 C   0  0  0  0  0  0  0  0  0  0  0  0
  -31.6530  -20.7110   20.3840 C   0  0  0  0  0  0  0  0  0  0  0  0
  -32.7440  -20.0450   21.2130 C   0  0  0  0  0  1  0  0  0  0  0  0
  -30.7220  -14.4690   20.4230 C   0  0  0  0  0  0  0  0  0  0  0  0
  -30.3660  -12.3040   19.3360 C   0  0  0  0  0  2  0  0  0  0  0  0
  -29.4440  -12.5260   18.1220 C   0  0  0  0  0  2  0  0  0  0  0  0
  -27.9630  -12.4280   18.5420 C   0  0  0  0  0  2  0  0  0  0  0  0
  -27.6280  -13.2570   19.8110 C   0  0  0  0  0  3  0  0  0  0  0  0
  -28.6860  -13.0720   20.9220 C   0  0  0  0  0  2  0  0  0  0  0  0
  -30.0090  -13.3190   20.3330 N   0  0  0  0  0  0  0  0  0  0  0  0
  -31.9150  -14.5490   20.1170 O   0  0  0  0  0  0  0  0  0  0  0  0
  -29.9430  -17.9900   21.5040 C   0  0  0  0  0  2  0  0  0  0  0  0
  -29.4910  -17.7470   19.1360 C   0  0  0  0  0  2  0  0  0  0  0  0
  -30.1880  -16.4660   21.6720 C   0  0  0  0  0  2  0  0  0  0  0  0
  -29.8250  -16.2520   19.1380 C   0  0  0  0  0  2  0  0  0  0  0  0
  -30.4030  -18.4750   20.1250 C   0  0  0  0  0  3  0  0  0  0  0  0
  -29.9920  -15.6120   20.4710 N   0  0  0  0  0  0  0  0  0  0  0  0
  -25.2330  -13.8670   20.5190 C   0  0  0  0  0  0  0  0  0  0  0  0
  -24.1600  -13.0980   20.8790 C   0  0  0  0  0  0  0  0  0  0  0  0
  -24.6190  -11.7440   20.8500 C   0  0  0  0  0  0  0  0  0  0  0  0
  -26.2760  -12.9830   20.2900 N   0  0  0  0  0  0  0  0  0  0  0  0
  -25.9090  -11.7010   20.5460 N   0  0  0  0  0  0  0  0  0  0  0  0
  -23.8880  -10.4840   21.0360 C   0  0  0  0  0  0  0  0  0  0  0  0
  -24.3060   -9.5220   21.9810 C   0  0  0  0  0  3  0  0  0  0  0  0
  -23.5780   -8.3250   22.1530 C   0  0  0  0  0  3  0  0  0  0  0  0
  -22.4170   -8.0820   21.3810 C   0  0  0  0  0  0  0  0  0  0  0  0
  -22.0190   -9.0350   20.4270 C   0  0  0  0  0  3  0  0  0  0  0  0
  -22.7480  -10.2220   20.2510 C   0  0  0  0  0  3  0  0  0  0  0  0
  -21.6640   -6.9360   21.4610 O   0  0  0  0  0  0  0  0  0  0  0  0
  -21.5890   -6.2030   22.6190 C   0  0  0  0  0  0  0  0  0  0  0  0
  -21.1080   -6.7620   23.8230 C   0  0  0  0  0  3  0  0  0  0  0  0
  -20.9750   -5.9560   24.9710 C   0  0  0  0  0  3  0  0  0  0  0  0
  -21.3190   -4.5920   24.9190 C   0  0  0  0  0  0  0  0  0  0  0  0
  -21.7980   -4.0330   23.7210 C   0  0  0  0  0  3  0  0  0  0  0  0
  -21.9300   -4.8360   22.5740 C   0  0  0  0  0  0  0  0  0  0  0  0
  -22.3690   -4.2860   21.4160 F   0  0  0  0  0  0  0  0  0  0  0  0
  -21.1890   -3.8150   26.0200 F   0  0  0  0  0  0  0  0  0  0  0  0
  -22.7630  -13.5800   21.1380 C   0  0  0  0  0  0  0  0  0  0  0  0
  -22.0240  -12.8840   21.9960 N   0  0  0  0  0  0  0  0  0  0  0  0
  -22.3320  -14.6070   20.6160 O   0  0  0  0  0  0  0  0  0  0  0  0
  -22.3850  -12.0550   22.4410 H   0  0  0  0  0  0  0  0  0  0  0  0
  -21.0840  -13.1870   22.2060 H   0  0  0  0  0  0  0  0  0  0  0  0
  -25.4050  -15.2360   20.3440 N   0  0  0  0  0  0  0  0  0  0  0  0
  -24.6460  -15.8980   20.4620 H   0  0  0  0  0  0  0  0  0  0  0  0
  -26.2720  -15.6740   20.0580 H   0  0  0  0  0  0  0  0  0  0  0  0
  -31.3820  -24.0930   17.1020 C   0  0  0  0  0  1  0  0  0  0  0  0
  -31.2630  -24.1200   18.6360 C   0  0  0  0  0  3  0  0  0  0  0  0
  -30.3060  -25.1680   19.0510 N   0  0  0  0  0  4  0  0  0  0  0  0
  -30.3750  -25.9070   18.3700 H   0  0  0  0  0  0  0  0  0  0  0  0
  -29.3650  -24.8120   19.0000 H   0  0  0  0  0  0  0  0  0  0  0  0
  -30.5160  -25.7870   20.3840 C   0  0  0  0  0  2  0  0  0  0  0  0
  -29.6200  -27.0320   20.5570 C   0  0  0  0  0  2  0  0  0  0  0  0
  -28.3420  -26.6180   20.1080 O   0  0  0  0  0  0  0  0  0  0  0  0
  -24.5790  -31.8780   23.2280 C   0  0  0  0  0  0  0  0  0  0  0  0
  -27.2510  -27.4480   20.1700 C   0  0  0  0  0  0  0  0  0  0  0  0
  -23.3840  -30.4660   21.5860 C   0  0  0  0  0  3  0  0  0  0  0  0
  -24.8510  -28.9340   20.1730 C   0  0  0  0  0  0  0  0  0  0  0  0
  -25.9100  -30.8340   21.4020 C   0  0  0  0  0  2  0  0  0  0  0  0
  -26.0050  -29.4640   20.7650 C   0  0  0  0  0  0  0  0  0  0  0  0
  -27.2130  -28.7300   20.7690 C   0  0  0  0  0  3  0  0  0  0  0  0
  -26.0810  -26.9290   19.5820 C   0  0  0  0  0  3  0  0  0  0  0  0
  -24.8820  -27.6610   19.5820 C   0  0  0  0  0  3  0  0  0  0  0  0
  -23.6020  -29.7830   20.2100 C   0  0  0  0  0  2  0  0  0  0  0  0
  -24.6430  -31.0710   22.1330 N   0  0  0  0  0  0  0  0  0  0  0  0
  -23.4900  -32.1700   23.7420 O   0  0  0  0  0  0  0  0  0  0  0  0
  -22.7290  -29.4450   22.5420 C   0  0  0  0  0  0  0  0  0  0  0  0
  -21.4050  -29.2620   22.4080 N   0  0  0  0  0  0  0  0  0  0  0  0
  -23.4090  -28.8170   23.3590 O   0  0  0  0  0  0  0  0  0  0  0  0
  -20.9180  -29.8200   21.7220 H   0  0  0  0  0  0  0  0  0  0  0  0
  -18.0210  -28.1030   22.9160 C   0  0  0  0  0  0  0  0  0  0  0  0
  -20.5840  -28.3230   23.1720 C   0  0  0  0  0  3  0  0  0  0  0  0
  -20.6610  -26.8980   22.5760 C   0  0  0  0  0  2  0  0  0  0  0  0
  -19.5500  -26.6050   21.5640 C   0  0  0  0  0  2  0  0  0  0  0  0
  -18.1730  -26.7610   22.2200 C   0  0  0  0  0  2  0  0  0  0  0  0
  -19.1520  -28.8440   23.3470 C   0  0  0  0  0  0  0  0  0  0  0  0
  -18.9580  -30.1030   23.9550 C   0  0  0  0  0  3  0  0  0  0  0  0
  -17.6620  -30.6220   24.1350 C   0  0  0  0  0  3  0  0  0  0  0  0
  -16.5430  -29.8780   23.7240 C   0  0  0  0  0  3  0  0  0  0  0  0
  -16.7240  -28.6190   23.1210 C   0  0  0  0  0  3  0  0  0  0  0  0
  -25.8630  -32.5000   23.8620 C   0  0  0  0  0  3  0  0  0  0  0  0
  -26.3710  -31.7260   25.1400 C   0  0  1  0  0  0  0  0  0  0  0  0
  -25.2690  -31.4820   26.1970 C   0  0  0  0  0  1  0  0  0  0  0  0
  -26.9630  -30.3520   24.7460 C   0  0  0  0  0  1  0  0  0  0  0  0
  -27.5150  -32.5210   25.8130 C   0  0  0  0  0  1  0  0  0  0  0  0
  -25.5540  -33.8990   24.1900 N   0  0  0  0  0  0  0  0  0  0  0  0
  -25.8860  -34.9480   23.4260 C   0  0  0  0  0  0  0  0  0  0  0  0
  -26.5580  -34.8420   22.3960 O   0  0  0  0  0  0  0  0  0  0  0  0
  -24.9600  -34.0570   24.9910 H   0  0  0  0  0  0  0  0  0  0  0  0
  -24.1620  -36.7390   23.0480 C   0  0  0  0  0  1  0  0  0  0  0  0
  -25.3930  -36.3380   23.8760 C   0  0  0  0  0  3  0  0  0  0  0  0
  -27.5170  -37.2220   24.7310 C   0  0  0  0  0  1  0  0  0  0  0  0
  -26.4270  -37.3890   23.7730 N   0  0  0  0  0  0  0  0  0  0  0  0
  -26.0190  -38.3100   23.9130 H   0  0  0  0  0  0  0  0  0  0  0  0
  1  4  1  0
  2  1  2  0
  2  5  1  0
  3  6  1  0
  4  6  2  0
  5  3  2  0
  6  7  1  0
  8 21  1  0
  9 14  1  0
 10 11  1  0
 10  9  1  0
 12 11  1  0
 12 25  1  0
 12 13  1  0
 14  8  1  0
 14 13  1  0
 15  8  2  0
 16 18  1  0
 17 19  1  0
 17 20  1  0
 19 21  1  0
 20  4  1  0
 20 16  1  0
 21 18  1  0
 22 23  2  0
 23 42  1  0
 24 23  1  0
 24 27  1  0
 25 22  1  0
 25 26  1  0
 26 24  2  0
 27 28  1  0
 28 29  2  0
 30 33  1  0
 30 29  1  0
 31 30  2  0
 32 31  1  0
 32 27  2  0
 33 34  1  0
 34 35  1  0
 35 36  2  0
 37 36  1  0
 37 41  1  0
 38 37  2  0
 39 34  2  0
 39 38  1  0
 40 39  1  0
 42 43  1  0
 43 46  1  0
 43 45  1  0
 44 42  2  0
 47 48  1  0
 47 22  1  0
 49 47  1  0
 51 50  1  0
 51 52  1  0
 51  5  1  0
 52 55  1  0
 53 52  1  0
 54 52  1  0
 55 56  1  0
 57 59  1  0
 57 56  1  0
 58 69  2  0
 59 64  1  0
 60 68  1  0
 60 70  1  0
 61 67  1  0
 61 63  1  0
 62 68  1  0
 63 64  2  0
 63 62  1  0
 65 66  1  0
 65 59  2  0
 66 61  2  0
 67 60  1  0
 68 58  1  0
 70 72  2  0
 71 70  1  0
 73 71  1  0
 74 83  2  0
 74 79  1  0
 75 71  1  0
 75 79  1  0
 76 75  1  0
 77 78  1  0
 77 76  1  0
 78 74  1  0
 79 80  2  0
 80 81  1  0
 82 81  2  0
 83 82  1  0
 84 58  1  0
 84 89  1  0
 84 85  1  0
 85 88  1  1
 85 86  1  0
 87 85  1  0
 89 92  1  0
 90 94  1  0
 90 89  1  0
 91 90  2  0
 94 93  1  0
 96 94  1  0
 96 97  1  0
 96 95  1  0
M  ISO  4   8 100  21 100  56 101  57 101
M  END
>  <TORSDO>  (19) 
F 20

>  <SCORE>  (19) 
-13.961

>  <name>  (19) 
18

>  <ligand_id>  (19) 
18

>  <original_smiles>  (19) 
[H]c1c([H])c([H])c2c(c1[H])C([H])([H])C([H])([H])C([H])([H])C2([H])N([H])C(=O)C1([H])N(C(=O)C([H])(N([H])C(=O)C([H])(N([H])C([H])([H])[H])C([H])([H])[H])C(C([H])([H])[H])(C([H])([H])[H])C([H])([H])[H])C([H])([H])c2c([H])c(OC([H])([H])C([H])([H])[N+]([H])([H])C([H])(c3c([H])c([H])c(C4([H])C([H])([H])C([H])([H])N(C(=O)N5C([H])([H])C([H])([H])C([H])([H])C([H])(n6nc(-c7c([H])c([H])c(Oc8c([H])c([H])c(F)c([H])c8F)c([H])c7[H])c(C(=O)N([H])[H])c6N([H])[H])C5([H])[H])C([H])([H])C4([H])[H])c(C([H])([H])[H])c3[H])C([H])([H])[H])c([H])c([H])c2C1([H])[H]

>  <smiles>  (19) 
[H]c1c([H])c([H])c2c(c1[H])C([H])([H])C([H])([H])C([H])([H])C2([H])N([H])C(=O)C1([H])N(C(=O)C([H])(N([H])C(=O)C([H])(N([H])C([H])([H])[H])C([H])([H])[H])C(C([H])([H])[H])(C([H])([H])[H])C([H])([H])[H])C([H])([H])c2c([H])c(OC([H])([H])C([H])([H])[N+]([H])([H])C([H])(c3c([H])c([H])c(C4([H])C([H])([H])C([H])([H])N(C(=O)N5C([H])([H])C([H])([H])C([H])([H])C([H])(n6nc(-c7c([H])c([H])c(Oc8c([H])c([H])c(F)c([H])c8F)c([H])c7[H])c(C(=O)N([H])[H])c6N([H])[H])C5([H])[H])C([H])([H])C4([H])[H])c(C([H])([H])[H])c3[H])C([H])([H])[H])c([H])c([H])c2C1([H])[H]

$$$$
19:0:0
     RDKit          3D

 92100  0  0  1  0  0  0  0  0999 V2000
  -29.7440  -17.6630   20.4130 C   0  0  0  0  0  0  0  0  0  0  0  0
  -29.4860  -19.8690   19.2980 C   0  0  0  0  0  2  0  0  0  0  0  0
  -30.9460  -19.7090   21.2510 C   0  0  0  0  0  2  0  0  0  0  0  0
  -28.8320  -21.1480   19.8710 C   0  0  0  0  0  2  0  0  0  0  0  0
  -30.2960  -20.9870   21.8360 C   0  0  0  0  0  2  0  0  0  0  0  0
  -30.0190  -18.9960   20.3600 N   0  0  0  0  0  0  0  0  0  0  0  0
  -29.7410  -21.8870   20.7880 N   0  0  2  0  0  4  0  0  0  0  0  0
  -28.9490  -17.1290   19.6310 O   0  0  0  0  0  0  0  0  0  0  0  0
  -30.5320  -22.1920   20.2420 H   0  0  0  0  0  0  0  0  0  0  0  0
  -30.4310  -16.7700   21.4710 C   0  0  0  0  0  2  0  0  0  0  0  0
  -30.6770  -14.4450   20.5630 C   0  0  0  0  0  0  0  0  0  0  0  0
  -30.3550  -12.3440   19.3090 C   0  0  0  0  0  2  0  0  0  0  0  0
  -29.4120  -12.5930   18.1150 C   0  0  0  0  0  2  0  0  0  0  0  0
  -27.9370  -12.4580   18.5400 C   0  0  0  0  0  2  0  0  0  0  0  0
  -27.6100  -13.2630   19.8270 C   0  0  0  0  0  3  0  0  0  0  0  0
  -28.6570  -12.9790   20.9260 C   0  0  0  0  0  2  0  0  0  0  0  0
  -29.9910  -13.2860   20.3770 N   0  0  0  0  0  0  0  0  0  0  0  0
  -31.7490  -14.6950   20.0050 O   0  0  0  0  0  0  0  0  0  0  0  0
  -30.0670  -15.3490   21.3430 N   0  0  0  0  0  0  0  0  0  0  0  0
  -29.1810  -15.0730   21.7380 H   0  0  0  0  0  0  0  0  0  0  0  0
  -25.2050  -13.8810   20.5100 C   0  0  0  0  0  0  0  0  0  0  0  0
  -24.1330  -13.1130   20.8760 C   0  0  0  0  0  0  0  0  0  0  0  0
  -24.5900  -11.7610   20.8540 C   0  0  0  0  0  0  0  0  0  0  0  0
  -26.2500  -12.9960   20.2930 N   0  0  0  0  0  0  0  0  0  0  0  0
  -25.8820  -11.7160   20.5540 N   0  0  0  0  0  0  0  0  0  0  0  0
  -23.8600  -10.5000   21.0470 C   0  0  0  0  0  0  0  0  0  0  0  0
  -24.2940   -9.5300   21.9780 C   0  0  0  0  0  3  0  0  0  0  0  0
  -23.5660   -8.3340   22.1570 C   0  0  0  0  0  3  0  0  0  0  0  0
  -22.3900   -8.1000   21.4050 C   0  0  0  0  0  0  0  0  0  0  0  0
  -21.9750   -9.0590   20.4630 C   0  0  0  0  0  3  0  0  0  0  0  0
  -22.7040  -10.2460   20.2820 C   0  0  0  0  0  3  0  0  0  0  0  0
  -21.6330   -6.9560   21.4940 O   0  0  0  0  0  0  0  0  0  0  0  0
  -21.5930   -6.2070   22.6420 C   0  0  0  0  0  0  0  0  0  0  0  0
  -21.1910   -6.7570   23.8780 C   0  0  0  0  0  3  0  0  0  0  0  0
  -21.0980   -5.9350   25.0180 C   0  0  0  0  0  3  0  0  0  0  0  0
  -21.3960   -4.5620   24.9240 C   0  0  0  0  0  0  0  0  0  0  0  0
  -21.7920   -4.0110   23.6910 C   0  0  0  0  0  3  0  0  0  0  0  0
  -21.8860   -4.8310   22.5540 C   0  0  0  0  0  0  0  0  0  0  0  0
  -22.2470   -4.2910   21.3650 F   0  0  0  0  0  0  0  0  0  0  0  0
  -21.3000   -3.7690   26.0170 F   0  0  0  0  0  0  0  0  0  0  0  0
  -22.7340  -13.5950   21.1390 C   0  0  0  0  0  0  0  0  0  0  0  0
  -22.0000  -12.9020   22.0030 N   0  0  0  0  0  0  0  0  0  0  0  0
  -22.3010  -14.6190   20.6140 O   0  0  0  0  0  0  0  0  0  0  0  0
  -22.3620  -12.0730   22.4500 H   0  0  0  0  0  0  0  0  0  0  0  0
  -21.0620  -13.2070   22.2220 H   0  0  0  0  0  0  0  0  0  0  0  0
  -25.3760  -15.2510   20.3270 N   0  0  0  0  0  0  0  0  0  0  0  0
  -24.6120  -15.9100   20.4250 H   0  0  0  0  0  0  0  0  0  0  0  0
  -26.2350  -15.6830   20.0080 H   0  0  0  0  0  0  0  0  0  0  0  0
  -29.1290  -23.1210   21.3710 C   0  0  0  0  0  2  0  0  0  0  0  0
  -29.0640  -24.3380   20.4100 C   0  0  0  0  0  2  0  0  0  0  0  0
  -28.4410  -25.5810   21.0860 C   0  0  0  0  0  2  0  0  0  0  0  0
  -28.4770  -26.7420   20.2450 O   0  0  0  0  0  0  0  0  0  0  0  0
  -24.6160  -31.9210   23.2600 C   0  0  0  0  0  0  0  0  0  0  0  0
  -27.3140  -27.4750   20.2420 C   0  0  0  0  0  0  0  0  0  0  0  0
  -23.4330  -30.4940   21.6230 C   0  0  0  0  0  3  0  0  0  0  0  0
  -24.9090  -28.9530   20.2240 C   0  0  0  0  0  0  0  0  0  0  0  0
  -25.9580  -30.8680   21.4460 C   0  0  0  0  0  2  0  0  0  0  0  0
  -26.0580  -29.4940   20.8170 C   0  0  0  0  0  0  0  0  0  0  0  0
  -27.2670  -28.7620   20.8210 C   0  0  0  0  0  3  0  0  0  0  0  0
  -26.1520  -26.9440   19.6460 C   0  0  0  0  0  3  0  0  0  0  0  0
  -24.9500  -27.6760   19.6360 C   0  0  0  0  0  3  0  0  0  0  0  0
  -23.6590  -29.8030   20.2520 C   0  0  0  0  0  2  0  0  0  0  0  0
  -24.6870  -31.1060   22.1710 N   0  0  0  0  0  0  0  0  0  0  0  0
  -23.5240  -32.2140   23.7670 O   0  0  0  0  0  0  0  0  0  0  0  0
  -22.7780  -29.4770   22.5860 C   0  0  0  0  0  0  0  0  0  0  0  0
  -21.4550  -29.2910   22.4500 N   0  0  0  0  0  0  0  0  0  0  0  0
  -23.4580  -28.8580   23.4080 O   0  0  0  0  0  0  0  0  0  0  0  0
  -20.9680  -29.8430   21.7580 H   0  0  0  0  0  0  0  0  0  0  0  0
  -18.0780  -28.0990   22.9320 C   0  0  0  0  0  0  0  0  0  0  0  0
  -20.6340  -28.3550   23.2180 C   0  0  0  0  0  3  0  0  0  0  0  0
  -20.7400  -26.9220   22.6440 C   0  0  0  0  0  2  0  0  0  0  0  0
  -19.6420  -26.6000   21.6240 C   0  0  0  0  0  2  0  0  0  0  0  0
  -18.2570  -26.7490   22.2600 C   0  0  0  0  0  2  0  0  0  0  0  0
  -19.1950  -28.8600   23.3680 C   0  0  0  0  0  0  0  0  0  0  0  0
  -18.9760  -30.1250   23.9550 C   0  0  0  0  0  3  0  0  0  0  0  0
  -17.6710  -30.6290   24.1120 C   0  0  0  0  0  3  0  0  0  0  0  0
  -16.5670  -29.8650   23.6930 C   0  0  0  0  0  3  0  0  0  0  0  0
  -16.7720  -28.6010   23.1100 C   0  0  0  0  0  3  0  0  0  0  0  0
  -25.8950  -32.5520   23.8970 C   0  0  0  0  0  3  0  0  0  0  0  0
  -26.4000  -31.7900   25.1840 C   0  0  1  0  0  0  0  0  0  0  0  0
  -25.2970  -31.5580   26.2400 C   0  0  0  0  0  1  0  0  0  0  0  0
  -26.9890  -30.4110   24.8040 C   0  0  0  0  0  1  0  0  0  0  0  0
  -27.5430  -32.5900   25.8520 C   0  0  0  0  0  1  0  0  0  0  0  0
  -25.5830  -33.9520   24.2130 N   0  0  0  0  0  0  0  0  0  0  0  0
  -25.9190  -34.9970   23.4440 C   0  0  0  0  0  0  0  0  0  0  0  0
  -26.5970  -34.8840   22.4190 O   0  0  0  0  0  0  0  0  0  0  0  0
  -24.9830  -34.1150   25.0080 H   0  0  0  0  0  0  0  0  0  0  0  0
  -24.1860  -36.7760   23.0560 C   0  0  0  0  0  1  0  0  0  0  0  0
  -25.4230  -36.3880   23.8820 C   0  0  0  0  0  3  0  0  0  0  0  0
  -27.5500  -37.2870   24.7130 C   0  0  0  0  0  1  0  0  0  0  0  0
  -26.4520  -37.4430   23.7640 N   0  0  0  0  0  0  0  0  0  0  0  0
  -26.0420  -38.3620   23.9020 H   0  0  0  0  0  0  0  0  0  0  0  0
  1 10  1  0
  2  4  1  0
  2  6  1  0
  3  5  1  0
  4  7  1  0
  6  1  1  0
  6  3  1  0
  7 49  1  0
  7  5  1  0
  8  1  2  0
  7  9  1  6
 11 19  1  0
 12 17  1  0
 13 14  1  0
 13 12  1  0
 15 14  1  0
 15 24  1  0
 15 16  1  0
 17 11  1  0
 17 16  1  0
 18 11  2  0
 19 10  1  0
 19 20  1  0
 21 22  2  0
 22 41  1  0
 23 22  1  0
 23 26  1  0
 24 21  1  0
 24 25  1  0
 25 23  2  0
 26 27  1  0
 27 28  2  0
 29 32  1  0
 29 28  1  0
 30 29  2  0
 31 30  1  0
 31 26  2  0
 32 33  1  0
 33 34  1  0
 34 35  2  0
 36 35  1  0
 36 40  1  0
 37 36  2  0
 38 33  2  0
 38 37  1  0
 39 38  1  0
 41 42  1  0
 42 45  1  0
 42 44  1  0
 43 41  2  0
 46 47  1  0
 46 21  1  0
 48 46  1  0
 50 51  1  0
 50 49  1  0
 52 51  1  0
 53 64  2  0
 54 52  1  0
 54 59  1  0
 55 63  1  0
 55 65  1  0
 56 62  1  0
 56 58  1  0
 57 63  1  0
 58 59  2  0
 58 57  1  0
 60 54  2  0
 61 60  1  0
 61 56  2  0
 62 55  1  0
 63 53  1  0
 65 67  2  0
 66 65  1  0
 68 66  1  0
 69 78  2  0
 69 74  1  0
 70 66  1  0
 70 74  1  0
 71 70  1  0
 72 73  1  0
 72 71  1  0
 73 69  1  0
 74 75  2  0
 75 76  1  0
 77 76  2  0
 78 77  1  0
 79 53  1  0
 79 84  1  0
 79 80  1  0
 80 83  1  1
 80 81  1  0
 82 80  1  0
 84 87  1  0
 85 89  1  0
 85 84  1  0
 86 85  2  0
 89 88  1  0
 91 89  1  0
 91 92  1  0
 91 90  1  0
M  ISO  4  11 100  19 100  51 101  52 101
M  END
>  <TORSDO>  (20) 
F 20

>  <SCORE>  (20) 
-14.128

>  <name>  (20) 
19

>  <ligand_id>  (20) 
19

>  <original_smiles>  (20) 
[H]c1c([H])c([H])c2c(c1[H])C([H])([H])C([H])([H])C([H])([H])C2([H])N([H])C(=O)C1([H])N(C(=O)C([H])(N([H])C(=O)C([H])(N([H])C([H])([H])[H])C([H])([H])[H])C(C([H])([H])[H])(C([H])([H])[H])C([H])([H])[H])C([H])([H])c2c([H])c(OC([H])([H])C([H])([H])C([H])([H])[N+]3([H])C([H])([H])C([H])([H])N(C(=O)C([H])([H])N([H])C(=O)N4C([H])([H])C([H])([H])C([H])([H])C([H])(n5nc(-c6c([H])c([H])c(Oc7c([H])c([H])c(F)c([H])c7F)c([H])c6[H])c(C(=O)N([H])[H])c5N([H])[H])C4([H])[H])C([H])([H])C3([H])[H])c([H])c([H])c2C1([H])[H]

>  <smiles>  (20) 
[H]c1c([H])c([H])c2c(c1[H])C([H])([H])C([H])([H])C([H])([H])C2([H])N([H])C(=O)C1([H])N(C(=O)C([H])(N([H])C(=O)C([H])(N([H])C([H])([H])[H])C([H])([H])[H])C(C([H])([H])[H])(C([H])([H])[H])C([H])([H])[H])C([H])([H])c2c([H])c(OC([H])([H])C([H])([H])C([H])([H])[N+]3([H])C([H])([H])C([H])([H])N(C(=O)C([H])([H])N([H])C(=O)N4C([H])([H])C([H])([H])C([H])([H])C([H])(n5nc(-c6c([H])c([H])c(Oc7c([H])c([H])c(F)c([H])c7F)c([H])c6[H])c(C(=O)N([H])[H])c5N([H])[H])C4([H])[H])C([H])([H])C3([H])[H])c([H])c([H])c2C1([H])[H]

$$$$
20:0:0
     RDKit          3D

 94103  0  0  1  0  0  0  0  0999 V2000
  -28.1990  -20.3850   18.5950 C   0  0  0  0  0  3  0  0  0  0  0  0
  -28.9790  -19.5810   19.4160 C   0  0  0  0  0  3  0  0  0  0  0  0
  -28.8910  -21.3680   21.0630 C   0  0  0  0  0  3  0  0  0  0  0  0
  -27.6690  -21.6010   19.0720 C   0  0  0  0  0  0  0  0  0  0  0  0
  -28.2060  -22.3990   20.1340 C   0  0  0  0  0  0  0  0  0  0  0  0
  -29.2350  -19.9420   20.7550 C   0  0  0  0  0  0  0  0  0  0  0  0
  -26.2170  -21.5920   18.6730 C   0  0  0  0  0  2  0  0  0  0  0  0
  -25.4850  -22.4690   19.5980 C   0  0  0  0  0  2  0  0  0  0  0  0
  -26.0850  -23.8750   19.5910 C   0  0  0  0  0  2  0  0  0  0  0  0
  -27.5500  -24.0240   20.2230 C   0  0  0  0  0  3  0  0  0  0  0  0
  -29.6760  -18.5780   21.2590 N   0  0  0  0  0  0  0  0  0  0  0  0
  -29.3750  -17.8500   20.6300 H   0  0  0  0  0  0  0  0  0  0  0  0
  -30.0460  -17.5750   22.3650 C   0  0  0  0  0  2  0  0  0  0  0  0
  -30.5790  -16.0090   22.1350 C   0  0  0  0  0  2  0  0  0  0  0  0
  -31.7460  -15.4960   21.0860 C   0  0  0  0  0  2  0  0  0  0  0  0
  -31.8240  -13.8810   19.2450 C   0  0  0  0  0  0  0  0  0  0  0  0
  -31.0470  -11.6230   18.5030 C   0  0  0  0  0  2  0  0  0  0  0  0
  -29.9360  -11.7350   17.4180 C   0  0  0  0  0  2  0  0  0  0  0  0
  -28.6120  -12.2090   18.0230 C   0  0  0  0  0  2  0  0  0  0  0  0
  -28.6310  -13.0330   19.3500 C   0  0  0  0  0  3  0  0  0  0  0  0
  -29.8090  -12.6340   20.2490 C   0  0  0  0  0  2  0  0  0  0  0  0
  -31.0250  -12.7750   19.3960 N   0  0  0  0  0  0  0  0  0  0  0  0
  -32.7790  -13.9390   18.4690 O   0  0  0  0  0  0  0  0  0  0  0  0
  -31.3200  -15.0060   19.7670 N   0  0  0  0  0  0  0  0  0  0  0  0
  -31.4740  -15.7810   19.1740 H   0  0  0  0  0  0  0  0  0  0  0  0
  -26.5510  -13.9580   20.4870 C   0  0  0  0  0  0  0  0  0  0  0  0
  -25.3750  -13.3250   20.8390 C   0  0  0  0  0  0  0  0  0  0  0  0
  -25.5620  -11.9090   20.6420 C   0  0  0  0  0  0  0  0  0  0  0  0
  -27.3280  -12.9380   19.9780 N   0  0  0  0  0  0  0  0  0  0  0  0
  -26.8330  -11.6970   20.2020 N   0  0  0  0  0  0  0  0  0  0  0  0
  -24.6140  -10.7460   20.7670 C   0  0  0  0  0  0  0  0  0  0  0  0
  -24.9170   -9.6630   21.6100 C   0  0  0  0  0  3  0  0  0  0  0  0
  -24.0120   -8.6090   21.8510 C   0  0  0  0  0  3  0  0  0  0  0  0
  -22.7680   -8.5990   21.2000 C   0  0  0  0  0  0  0  0  0  0  0  0
  -22.4590   -9.6160   20.3010 C   0  0  0  0  0  3  0  0  0  0  0  0
  -23.3870  -10.6770   20.0600 C   0  0  0  0  0  3  0  0  0  0  0  0
  -21.8550   -7.5980   21.3220 O   0  0  0  0  0  0  0  0  0  0  0  0
  -21.7120   -6.9290   22.4980 C   0  0  0  0  0  0  0  0  0  0  0  0
  -21.3850   -7.6010   23.7210 C   0  0  0  0  0  3  0  0  0  0  0  0
  -21.1710   -6.8660   24.8910 C   0  0  0  0  0  3  0  0  0  0  0  0
  -21.2590   -5.4670   24.8570 C   0  0  0  0  0  0  0  0  0  0  0  0
  -21.5930   -4.7830   23.6770 C   0  0  0  0  0  3  0  0  0  0  0  0
  -21.8250   -5.5060   22.5020 C   0  0  0  0  0  0  0  0  0  0  0  0
  -22.1100   -4.8650   21.3640 F   0  0  0  0  0  0  0  0  0  0  0  0
  -21.0490   -4.7440   26.0240 F   0  0  0  0  0  0  0  0  0  0  0  0
  -24.1480  -14.0260   21.2720 C   0  0  0  0  0  0  0  0  0  0  0  0
  -23.4620  -13.3880   22.2650 N   0  0  0  0  0  0  0  0  0  0  0  0
  -23.7170  -15.0650   20.7890 O   0  0  0  0  0  0  0  0  0  0  0  0
  -23.7780  -12.4520   22.4600 H   0  0  0  0  0  0  0  0  0  0  0  0
  -22.7510  -13.8710   22.7970 H   0  0  0  0  0  0  0  0  0  0  0  0
  -27.0050  -15.2770   20.2840 N   0  0  0  0  0  0  0  0  0  0  0  0
  -26.8050  -15.2680   19.3090 H   0  0  0  0  0  0  0  0  0  0  0  0
  -26.7810  -16.1740   20.6990 H   0  0  0  0  0  0  0  0  0  0  0  0
  -28.1850  -25.5720   19.9540 O   0  0  0  0  0  0  0  0  0  0  0  0
  -24.7610  -31.6030   22.9850 C   0  0  0  0  0  0  0  0  0  0  0  0
  -27.3680  -26.8450   19.8700 C   0  0  0  0  0  0  0  0  0  0  0  0
  -23.6690  -30.2570   21.2540 C   0  0  0  0  0  3  0  0  0  0  0  0
  -25.2080  -28.8430   19.7810 C   0  0  0  0  0  0  0  0  0  0  0  0
  -26.2480  -30.4810   21.3080 C   0  0  0  0  0  2  0  0  0  0  0  0
  -26.3520  -29.1540   20.5110 C   0  0  0  0  0  0  0  0  0  0  0  0
  -27.4650  -28.1730   20.5450 C   0  0  0  0  0  3  0  0  0  0  0  0
  -26.2660  -26.8080   19.0070 C   0  0  0  0  0  3  0  0  0  0  0  0
  -25.1940  -27.6980   19.0240 C   0  0  0  0  0  3  0  0  0  0  0  0
  -23.9520  -29.7310   19.8410 C   0  0  0  0  0  2  0  0  0  0  0  0
  -24.8970  -30.8180   21.8890 N   0  0  0  0  0  0  0  0  0  0  0  0
  -23.6330  -31.9060   23.4100 O   0  0  0  0  0  0  0  0  0  0  0  0
  -23.0170  -29.1460   22.1180 C   0  0  0  0  0  0  0  0  0  0  0  0
  -21.6840  -28.9650   22.0000 N   0  0  0  0  0  0  0  0  0  0  0  0
  -23.7090  -28.4570   22.8720 O   0  0  0  0  0  0  0  0  0  0  0  0
  -21.1840  -29.5470   21.3420 H   0  0  0  0  0  0  0  0  0  0  0  0
  -18.3080  -27.7950   22.6140 C   0  0  0  0  0  0  0  0  0  0  0  0
  -20.8880  -27.9610   22.7200 C   0  0  0  0  0  3  0  0  0  0  0  0
  -20.8940  -26.5960   21.9910 C   0  0  0  0  0  2  0  0  0  0  0  0
  -19.7210  -26.4260   21.0180 C   0  0  0  0  0  2  0  0  0  0  0  0
  -18.3880  -26.5380   21.7640 C   0  0  0  0  0  2  0  0  0  0  0  0
  -19.4810  -28.4700   23.0510 C   0  0  0  0  0  0  0  0  0  0  0  0
  -19.3460  -29.6480   23.8160 C   0  0  0  0  0  3  0  0  0  0  0  0
  -18.0750  -30.1560   24.1400 C   0  0  0  0  0  3  0  0  0  0  0  0
  -16.9180  -29.4800   23.7140 C   0  0  0  0  0  3  0  0  0  0  0  0
  -17.0350  -28.2990   22.9570 C   0  0  0  0  0  3  0  0  0  0  0  0
  -25.9860  -32.2210   23.7270 C   0  0  0  0  0  3  0  0  0  0  0  0
  -26.4360  -31.4310   25.0180 C   0  0  1  0  0  0  0  0  0  0  0  0
  -25.2670  -31.1410   25.9860 C   0  0  0  0  0  1  0  0  0  0  0  0
  -27.1050  -30.0720   24.7080 C   0  0  0  0  0  1  0  0  0  0  0  0
  -27.5130  -32.2570   25.7630 C   0  0  0  0  0  1  0  0  0  0  0  0
  -25.5940  -33.5900   24.0870 N   0  0  0  0  0  0  0  0  0  0  0  0
  -25.9200  -34.6960   23.4080 C   0  0  0  0  0  0  0  0  0  0  0  0
  -26.6550  -34.6760   22.4180 O   0  0  0  0  0  0  0  0  0  0  0  0
  -24.8980  -33.6710   24.8120 H   0  0  0  0  0  0  0  0  0  0  0  0
  -24.1090  -36.4120   23.0660 C   0  0  0  0  0  1  0  0  0  0  0  0
  -25.3370  -36.0300   23.9090 C   0  0  0  0  0  3  0  0  0  0  0  0
  -27.3700  -36.9730   24.9000 C   0  0  0  0  0  1  0  0  0  0  0  0
  -26.3150  -37.1410   23.9030 N   0  0  0  0  0  0  0  0  0  0  0  0
  -25.8530  -38.0290   24.0730 H   0  0  0  0  0  0  0  0  0  0  0  0
  1  4  2  0
  1  2  1  0
  2  6  2  0
  4  5  1  0
  5 10  1  0
  5  3  2  0
  6  3  1  0
  6 11  1  0
  7  4  1  0
  7  8  1  0
  9  8  1  0
  9 10  1  0
 10 54  1  0
 11 13  1  0
 12 11  1  0
 14 13  1  0
 15 14  1  0
 16 22  1  0
 16 24  1  0
 17 22  1  0
 18 19  1  0
 18 17  1  0
 20 19  1  0
 20 29  1  0
 20 21  1  0
 22 21  1  0
 23 16  2  0
 24 15  1  0
 25 24  1  0
 26 27  2  0
 27 46  1  0
 28 31  1  0
 28 27  1  0
 29 30  1  0
 29 26  1  0
 30 28  2  0
 31 32  1  0
 32 33  2  0
 34 37  1  0
 34 33  1  0
 35 34  2  0
 36 35  1  0
 36 31  2  0
 37 38  1  0
 38 43  2  0
 38 39  1  0
 39 40  2  0
 41 40  1  0
 41 45  1  0
 42 41  2  0
 43 42  1  0
 44 43  1  0
 46 47  1  0
 47 49  1  0
 47 50  1  0
 48 46  2  0
 51 26  1  0
 51 53  1  0
 52 51  1  0
 55 66  2  0
 56 54  1  0
 56 61  1  0
 57 65  1  0
 57 67  1  0
 58 64  1  0
 58 60  1  0
 59 65  1  0
 60 61  2  0
 60 59  1  0
 62 63  1  0
 62 56  2  0
 63 58  2  0
 64 57  1  0
 65 55  1  0
 67 69  2  0
 68 67  1  0
 70 68  1  0
 71 80  2  0
 71 76  1  0
 72 68  1  0
 72 76  1  0
 73 72  1  0
 74 75  1  0
 74 73  1  0
 75 71  1  0
 76 77  2  0
 77 78  1  0
 79 78  2  0
 80 79  1  0
 81 55  1  0
 81 86  1  0
 81 82  1  0
 82 85  1  1
 82 83  1  0
 84 82  1  0
 86 89  1  0
 87 91  1  0
 87 86  1  0
 88 87  2  0
 91 90  1  0
 93 91  1  0
 93 94  1  0
 93 92  1  0
M  ISO  4  10 101  16 100  24 100  54 101
M  END
>  <TORSDO>  (21) 
F 20

>  <SCORE>  (21) 
-11.960

>  <name>  (21) 
20

>  <ligand_id>  (21) 
20

>  <original_smiles>  (21) 
[H]c1c([H])c([H])c2c(c1[H])C([H])([H])C([H])([H])C([H])([H])C2([H])N([H])C(=O)C1([H])N(C(=O)C([H])(N([H])C(=O)C([H])(N([H])C([H])([H])[H])C([H])([H])[H])C(C([H])([H])[H])(C([H])([H])[H])C([H])([H])[H])C([H])([H])c2c([H])c(OC3([H])c4c([H])c(N([H])C([H])([H])C([H])([H])C([H])([H])N([H])C(=O)N5C([H])([H])C([H])([H])C([H])([H])C([H])(n6nc(-c7c([H])c([H])c(Oc8c([H])c([H])c(F)c([H])c8F)c([H])c7[H])c(C(=O)N([H])[H])c6N([H])[H])C5([H])[H])c([H])c([H])c4C([H])([H])C([H])([H])C3([H])[H])c([H])c([H])c2C1([H])[H]

>  <smiles>  (21) 
[H]c1c([H])c([H])c2c(c1[H])C([H])([H])C([H])([H])C([H])([H])C2([H])N([H])C(=O)C1([H])N(C(=O)C([H])(N([H])C(=O)C([H])(N([H])C([H])([H])[H])C([H])([H])[H])C(C([H])([H])[H])(C([H])([H])[H])C([H])([H])[H])C([H])([H])c2c([H])c(OC3([H])c4c([H])c(N([H])C([H])([H])C([H])([H])C([H])([H])N([H])C(=O)N5C([H])([H])C([H])([H])C([H])([H])C([H])(n6nc(-c7c([H])c([H])c(Oc8c([H])c([H])c(F)c([H])c8F)c([H])c7[H])c(C(=O)N([H])[H])c6N([H])[H])C5([H])[H])c([H])c([H])c4C([H])([H])C([H])([H])C3([H])[H])c([H])c([H])c2C1([H])[H]

$$$$
21:0:0
     RDKit          3D

 94103  0  0  1  0  0  0  0  0999 V2000
  -28.9360  -23.7310   18.2830 C   0  0  0  0  0  3  0  0  0  0  0  0
  -28.5470  -25.0580   18.5290 C   0  0  0  0  0  3  0  0  0  0  0  0
  -29.8290  -23.5850   20.5530 C   0  0  0  0  0  3  0  0  0  0  0  0
  -29.5780  -22.9970   19.2990 C   0  0  0  0  0  0  0  0  0  0  0  0
  -29.4500  -24.9120   20.7960 C   0  0  0  0  0  0  0  0  0  0  0  0
  -28.7850  -25.6380   19.7900 C   0  0  0  0  0  0  0  0  0  0  0  0
  -29.7850  -25.5680   22.1220 C   0  0  0  0  0  1  0  0  0  0  0  0
  -28.5310  -26.9540   20.0230 O   0  0  0  0  0  0  0  0  0  0  0  0
  -24.5760  -31.8780   23.1920 C   0  0  0  0  0  0  0  0  0  0  0  0
  -27.2710  -27.4900   20.1120 C   0  0  0  0  0  0  0  0  0  0  0  0
  -23.3760  -30.4600   21.5520 C   0  0  0  0  0  3  0  0  0  0  0  0
  -24.8390  -28.9160   20.1500 C   0  0  0  0  0  0  0  0  0  0  0  0
  -25.8970  -30.8350   21.3630 C   0  0  0  0  0  2  0  0  0  0  0  0
  -25.9860  -29.4640   20.7350 C   0  0  0  0  0  0  0  0  0  0  0  0
  -27.1960  -28.7510   20.7220 C   0  0  0  0  0  3  0  0  0  0  0  0
  -26.1050  -26.9170   19.5540 C   0  0  0  0  0  3  0  0  0  0  0  0
  -24.8880  -27.6330   19.5680 C   0  0  0  0  0  3  0  0  0  0  0  0
  -23.5910  -29.7660   20.1790 C   0  0  0  0  0  2  0  0  0  0  0  0
  -24.6340  -31.0700   22.0960 N   0  0  0  0  0  0  0  0  0  0  0  0
  -23.4900  -32.1720   23.7080 O   0  0  0  0  0  0  0  0  0  0  0  0
  -22.7280  -29.4400   22.5130 C   0  0  0  0  0  0  0  0  0  0  0  0
  -21.4030  -29.2680   22.3900 N   0  0  0  0  0  0  0  0  0  0  0  0
  -23.4130  -28.8060   23.3210 O   0  0  0  0  0  0  0  0  0  0  0  0
  -20.9150  -29.8330   21.7090 H   0  0  0  0  0  0  0  0  0  0  0  0
  -18.0180  -28.1090   22.8830 C   0  0  0  0  0  0  0  0  0  0  0  0
  -20.5800  -28.3310   23.1530 C   0  0  0  0  0  3  0  0  0  0  0  0
  -20.6630  -26.9030   22.5630 C   0  0  0  0  0  2  0  0  0  0  0  0
  -19.5540  -26.6040   21.5480 C   0  0  0  0  0  2  0  0  0  0  0  0
  -18.1760  -26.7610   22.1970 C   0  0  0  0  0  2  0  0  0  0  0  0
  -19.1480  -28.8520   23.3170 C   0  0  0  0  0  0  0  0  0  0  0  0
  -18.9480  -30.1140   23.9170 C   0  0  0  0  0  3  0  0  0  0  0  0
  -17.6510  -30.6320   24.0890 C   0  0  0  0  0  3  0  0  0  0  0  0
  -16.5360  -29.8840   23.6740 C   0  0  0  0  0  3  0  0  0  0  0  0
  -16.7200  -28.6250   23.0750 C   0  0  0  0  0  3  0  0  0  0  0  0
  -25.8650  -32.4960   23.8250 C   0  0  0  0  0  3  0  0  0  0  0  0
  -26.3820  -31.7130   25.0940 C   0  0  1  0  0  0  0  0  0  0  0  0
  -25.2890  -31.4690   26.1580 C   0  0  0  0  0  1  0  0  0  0  0  0
  -26.9640  -30.3390   24.6910 C   0  0  0  0  0  1  0  0  0  0  0  0
  -27.5300  -32.5040   25.7670 C   0  0  0  0  0  1  0  0  0  0  0  0
  -25.5600  -33.8920   24.1630 N   0  0  0  0  0  0  0  0  0  0  0  0
  -25.8970  -34.9460   23.4100 C   0  0  0  0  0  0  0  0  0  0  0  0
  -26.5680  -34.8470   22.3800 O   0  0  0  0  0  0  0  0  0  0  0  0
  -24.9600  -34.0440   24.9600 H   0  0  0  0  0  0  0  0  0  0  0  0
  -24.1620  -36.7310   23.0610 C   0  0  0  0  0  1  0  0  0  0  0  0
  -25.4050  -36.3310   23.8710 C   0  0  0  0  0  3  0  0  0  0  0  0
  -27.5400  -37.2130   24.7030 C   0  0  0  0  0  1  0  0  0  0  0  0
  -26.4360  -37.3860   23.7610 N   0  0  0  0  0  0  0  0  0  0  0  0
  -26.0310  -38.3050   23.9140 H   0  0  0  0  0  0  0  0  0  0  0  0
  -29.9430  -21.5520   19.1000 C   0  0  0  0  0  2  0  0  0  0  0  0
  -28.8450  -20.6830   19.7190 C   0  0  0  0  0  2  0  0  0  0  0  0
  -28.0290  -18.4080   20.3710 C   0  0  0  0  0  2  0  0  0  0  0  0
  -30.4170  -19.0510   20.9210 C   0  0  0  0  0  2  0  0  0  0  0  0
  -28.3460  -16.9070   20.4250 C   0  0  0  0  0  2  0  0  0  0  0  0
  -30.4930  -17.6400   21.5430 C   0  0  0  0  0  2  0  0  0  0  0  0
  -29.2460  -19.2230   19.9160 C   0  0  0  0  0  3  0  0  0  0  0  0
  -29.8520  -16.6140   20.6020 C   0  0  0  0  0  3  0  0  0  0  0  0
  -30.7010  -14.3380   20.3260 C   0  0  0  0  0  0  0  0  0  0  0  0
  -30.3600  -12.2610   19.0590 C   0  0  0  0  0  2  0  0  0  0  0  0
  -29.3920  -12.5610   17.8940 C   0  0  0  0  0  2  0  0  0  0  0  0
  -27.9210  -12.4450   18.3440 C   0  0  0  0  0  2  0  0  0  0  0  0
  -27.6350  -13.2100   19.6630 C   0  0  0  0  0  3  0  0  0  0  0  0
  -28.7020  -12.8660   20.7280 C   0  0  0  0  0  2  0  0  0  0  0  0
  -30.0340  -13.1670   20.1680 N   0  0  0  0  0  0  0  0  0  0  0  0
  -31.7480  -14.6240   19.7350 O   0  0  0  0  0  0  0  0  0  0  0  0
  -30.0300  -15.2410   21.0470 N   0  0  0  0  0  0  0  0  0  0  0  0
  -29.2740  -14.8610   21.6000 H   0  0  0  0  0  0  0  0  0  0  0  0
  -25.2440  -13.8480   20.3910 C   0  0  0  0  0  0  0  0  0  0  0  0
  -24.1780  -13.0860   20.7840 C   0  0  0  0  0  0  0  0  0  0  0  0
  -24.6310  -11.7330   20.7520 C   0  0  0  0  0  0  0  0  0  0  0  0
  -26.2830  -12.9580   20.1530 N   0  0  0  0  0  0  0  0  0  0  0  0
  -25.9140  -11.6800   20.4200 N   0  0  0  0  0  0  0  0  0  0  0  0
  -23.9020  -10.4780   20.9640 C   0  0  0  0  0  0  0  0  0  0  0  0
  -24.3450   -9.5150   21.8980 C   0  0  0  0  0  3  0  0  0  0  0  0
  -23.6180   -8.3220   22.0950 C   0  0  0  0  0  3  0  0  0  0  0  0
  -22.4340   -8.0840   21.3590 C   0  0  0  0  0  0  0  0  0  0  0  0
  -22.0100   -9.0330   20.4120 C   0  0  0  0  0  3  0  0  0  0  0  0
  -22.7370  -10.2180   20.2130 C   0  0  0  0  0  3  0  0  0  0  0  0
  -21.6780   -6.9410   21.4660 O   0  0  0  0  0  0  0  0  0  0  0  0
  -21.6390   -6.2080   22.6230 C   0  0  0  0  0  0  0  0  0  0  0  0
  -21.2330   -6.7750   23.8510 C   0  0  0  0  0  3  0  0  0  0  0  0
  -21.1410   -5.9710   25.0040 C   0  0  0  0  0  3  0  0  0  0  0  0
  -21.4430   -4.5970   24.9300 C   0  0  0  0  0  0  0  0  0  0  0  0
  -21.8380   -4.0280   23.7070 C   0  0  0  0  0  3  0  0  0  0  0  0
  -21.9320   -4.8310   22.5570 C   0  0  0  0  0  0  0  0  0  0  0  0
  -22.2970   -4.2740   21.3770 F   0  0  0  0  0  0  0  0  0  0  0  0
  -21.3460   -3.8210   26.0330 F   0  0  0  0  0  0  0  0  0  0  0  0
  -22.7880  -13.5730   21.0840 C   0  0  0  0  0  0  0  0  0  0  0  0
  -22.0760  -12.8850   21.9680 N   0  0  0  0  0  0  0  0  0  0  0  0
  -22.3440  -14.5980   20.5670 O   0  0  0  0  0  0  0  0  0  0  0  0
  -22.4490  -12.0540   22.4060 H   0  0  0  0  0  0  0  0  0  0  0  0
  -21.1440  -13.1890   22.2090 H   0  0  0  0  0  0  0  0  0  0  0  0
  -25.4060  -15.2160   20.1990 N   0  0  0  0  0  0  0  0  0  0  0  0
  -24.6420  -15.8720   20.3200 H   0  0  0  0  0  0  0  0  0  0  0  0
  -26.2520  -15.6580   19.8650 H   0  0  0  0  0  0  0  0  0  0  0  0
  1  2  2  0
  1  4  1  0
  2  6  1  0
  3  5  1  0
  4  3  2  0
  5  7  1  0
  6  8  1  0
  6  5  2  0
  8 10  1  0
  9 20  2  0
 10 15  1  0
 11 19  1  0
 11 21  1  0
 12 18  1  0
 12 14  1  0
 13 19  1  0
 14 13  1  0
 15 14  2  0
 16 17  1  0
 16 10  2  0
 17 12  2  0
 18 11  1  0
 19  9  1  0
 21 23  2  0
 22 21  1  0
 24 22  1  0
 25 34  2  0
 25 30  1  0
 26 22  1  0
 26 30  1  0
 27 26  1  0
 28 29  1  0
 28 27  1  0
 29 25  1  0
 30 31  2  0
 31 32  1  0
 33 32  2  0
 34 33  1  0
 35  9  1  0
 35 40  1  0
 35 36  1  0
 36 39  1  1
 36 37  1  0
 38 36  1  0
 40 43  1  0
 41 45  1  0
 41 40  1  0
 42 41  2  0
 45 44  1  0
 47 45  1  0
 47 48  1  0
 47 46  1  0
 49  4  1  0
 49 50  1  0
 51 53  1  0
 52 54  1  0
 53 56  1  0
 55 50  1  0
 55 51  1  0
 55 52  1  0
 56 65  1  0
 56 54  1  0
 57 65  1  0
 58 63  1  0
 59 60  1  0
 59 58  1  0
 61 60  1  0
 61 70  1  0
 61 62  1  0
 63 57  1  0
 63 62  1  0
 64 57  2  0
 65 66  1  0
 67 68  2  0
 68 87  1  0
 69 68  1  0
 69 72  1  0
 70 67  1  0
 70 71  1  0
 71 69  2  0
 72 73  1  0
 73 74  2  0
 75 78  1  0
 75 74  1  0
 76 75  2  0
 77 76  1  0
 77 72  2  0
 78 79  1  0
 79 80  1  0
 80 81  2  0
 82 81  1  0
 82 86  1  0
 83 82  2  0
 84 79  2  0
 84 83  1  0
 85 84  1  0
 87 88  1  0
 88 91  1  0
 88 90  1  0
 89 87  2  0
 92 93  1  0
 92 67  1  0
 94 92  1  0
M  ISO  4   6 101   8 101  57 100  65 100
M  END
>  <TORSDO>  (22) 
F 19

>  <SCORE>  (22) 
-14.569

>  <name>  (22) 
21

>  <ligand_id>  (22) 
21

>  <original_smiles>  (22) 
[H]c1c([H])c([H])c2c(c1[H])C([H])([H])C([H])([H])C([H])([H])C2([H])N([H])C(=O)C1([H])N(C(=O)C([H])(N([H])C(=O)C([H])(N([H])C([H])([H])[H])C([H])([H])[H])C(C([H])([H])[H])(C([H])([H])[H])C([H])([H])[H])C([H])([H])c2c([H])c(Oc3c([H])c([H])c(C([H])([H])C([H])([H])C4([H])C([H])([H])C([H])([H])C([H])(N([H])C(=O)N5C([H])([H])C([H])([H])C([H])([H])C([H])(n6nc(-c7c([H])c([H])c(Oc8c([H])c([H])c(F)c([H])c8F)c([H])c7[H])c(C(=O)N([H])[H])c6N([H])[H])C5([H])[H])C([H])([H])C4([H])[H])c([H])c3C([H])([H])[H])c([H])c([H])c2C1([H])[H]

>  <smiles>  (22) 
[H]c1c([H])c([H])c2c(c1[H])C([H])([H])C([H])([H])C([H])([H])C2([H])N([H])C(=O)C1([H])N(C(=O)C([H])(N([H])C(=O)C([H])(N([H])C([H])([H])[H])C([H])([H])[H])C(C([H])([H])[H])(C([H])([H])[H])C([H])([H])[H])C([H])([H])c2c([H])c(Oc3c([H])c([H])c(C([H])([H])C([H])([H])C4([H])C([H])([H])C([H])([H])C([H])(N([H])C(=O)N5C([H])([H])C([H])([H])C([H])([H])C([H])(n6nc(-c7c([H])c([H])c(Oc8c([H])c([H])c(F)c([H])c8F)c([H])c7[H])c(C(=O)N([H])[H])c6N([H])[H])C5([H])[H])C([H])([H])C4([H])[H])c([H])c3C([H])([H])[H])c([H])c([H])c2C1([H])[H]

$$$$
22:0:0
     RDKit          3D

 93102  0  0  1  0  0  0  0  0999 V2000
  -31.0800  -18.6850   18.7340 C   0  0  0  0  0  3  0  0  0  0  0  0
  -31.0120  -17.3740   19.2410 C   0  0  0  0  0  3  0  0  0  0  0  0
  -29.2490  -18.0700   20.7470 C   0  0  0  0  0  3  0  0  0  0  0  0
  -30.2210  -19.7040   19.1990 C   0  0  0  0  0  0  0  0  0  0  0  0
  -29.3080  -19.4060   20.2370 C   0  0  0  0  0  0  0  0  0  0  0  0
  -30.0830  -17.0240   20.2520 C   0  0  0  0  0  0  0  0  0  0  0  0
  -30.2470  -21.0550   18.4780 C   0  0  0  0  0  2  0  0  0  0  0  0
  -28.3160  -20.4720   20.7360 C   0  0  0  0  0  2  0  0  0  0  0  0
  -30.4740  -22.3170   19.3390 C   0  0  0  0  0  2  0  0  0  0  0  0
  -28.8720  -21.8690   21.1670 C   0  0  0  0  0  2  0  0  0  0  0  0
  -29.2610  -22.7950   20.0570 N   0  0  1  0  0  4  0  0  0  0  0  0
  -28.5120  -22.7610   19.3810 H   0  0  0  0  0  0  0  0  0  0  0  0
  -30.6530  -14.5540   20.4130 C   0  0  0  0  0  0  0  0  0  0  0  0
  -30.3600  -12.3490   19.3520 C   0  0  0  0  0  2  0  0  0  0  0  0
  -29.4300  -12.5330   18.1350 C   0  0  0  0  0  2  0  0  0  0  0  0
  -27.9540  -12.3990   18.5580 C   0  0  0  0  0  2  0  0  0  0  0  0
  -27.6080  -13.2540   19.8070 C   0  0  0  0  0  3  0  0  0  0  0  0
  -28.6620  -13.0780   20.9250 C   0  0  0  0  0  2  0  0  0  0  0  0
  -29.9830  -13.3670   20.3490 N   0  0  0  0  0  0  0  0  0  0  0  0
  -31.8310  -14.6440   20.0600 O   0  0  0  0  0  0  0  0  0  0  0  0
  -29.9110  -15.6560   20.7130 N   0  0  0  0  0  0  0  0  0  0  0  0
  -29.0230  -15.4520   21.1460 H   0  0  0  0  0  0  0  0  0  0  0  0
  -25.2120  -13.8620   20.5140 C   0  0  0  0  0  0  0  0  0  0  0  0
  -24.1420  -13.0930   20.8830 C   0  0  0  0  0  0  0  0  0  0  0  0
  -24.6010  -11.7410   20.8590 C   0  0  0  0  0  0  0  0  0  0  0  0
  -26.2560  -12.9790   20.2880 N   0  0  0  0  0  0  0  0  0  0  0  0
  -25.8920  -11.6980   20.5550 N   0  0  0  0  0  0  0  0  0  0  0  0
  -23.8710  -10.4810   21.0500 C   0  0  0  0  0  0  0  0  0  0  0  0
  -24.3030   -9.5100   21.9800 C   0  0  0  0  0  3  0  0  0  0  0  0
  -23.5730   -8.3150   22.1590 C   0  0  0  0  0  3  0  0  0  0  0  0
  -22.3970   -8.0810   21.4070 C   0  0  0  0  0  0  0  0  0  0  0  0
  -21.9850   -9.0410   20.4650 C   0  0  0  0  0  3  0  0  0  0  0  0
  -22.7150  -10.2260   20.2850 C   0  0  0  0  0  3  0  0  0  0  0  0
  -21.6390   -6.9390   21.4950 O   0  0  0  0  0  0  0  0  0  0  0  0
  -21.5970   -6.1910   22.6440 C   0  0  0  0  0  0  0  0  0  0  0  0
  -21.1810   -6.7390   23.8760 C   0  0  0  0  0  3  0  0  0  0  0  0
  -21.0870   -5.9170   25.0170 C   0  0  0  0  0  3  0  0  0  0  0  0
  -21.3970   -4.5480   24.9270 C   0  0  0  0  0  0  0  0  0  0  0  0
  -21.8050   -3.9980   23.6990 C   0  0  0  0  0  3  0  0  0  0  0  0
  -21.9020   -4.8170   22.5600 C   0  0  0  0  0  0  0  0  0  0  0  0
  -22.2760   -4.2770   21.3750 F   0  0  0  0  0  0  0  0  0  0  0  0
  -21.2980   -3.7560   26.0200 F   0  0  0  0  0  0  0  0  0  0  0  0
  -22.7450  -13.5750   21.1480 C   0  0  0  0  0  0  0  0  0  0  0  0
  -22.0110  -12.8820   22.0120 N   0  0  0  0  0  0  0  0  0  0  0  0
  -22.3110  -14.5990   20.6240 O   0  0  0  0  0  0  0  0  0  0  0  0
  -22.3740  -12.0520   22.4590 H   0  0  0  0  0  0  0  0  0  0  0  0
  -21.0730  -13.1850   22.2310 H   0  0  0  0  0  0  0  0  0  0  0  0
  -25.3800  -15.2320   20.3300 N   0  0  0  0  0  0  0  0  0  0  0  0
  -24.6120  -15.8860   20.4240 H   0  0  0  0  0  0  0  0  0  0  0  0
  -26.2260  -15.6640   19.9790 H   0  0  0  0  0  0  0  0  0  0  0  0
  -29.3710  -24.2500   20.4720 C   0  0  0  0  0  2  0  0  0  0  0  0
  -28.2060  -25.1610   19.9690 C   0  0  0  0  0  2  0  0  0  0  0  0
  -28.3570  -26.5890   20.2330 O   0  0  0  0  0  0  0  0  0  0  0  0
  -24.6040  -31.8880   23.2650 C   0  0  0  0  0  0  0  0  0  0  0  0
  -27.2120  -27.3810   20.1840 C   0  0  0  0  0  0  0  0  0  0  0  0
  -23.3930  -30.4910   21.6270 C   0  0  0  0  0  3  0  0  0  0  0  0
  -24.8380  -28.9510   20.1940 C   0  0  0  0  0  0  0  0  0  0  0  0
  -25.9290  -30.8180   21.4400 C   0  0  0  0  0  2  0  0  0  0  0  0
  -26.0040  -29.4470   20.7890 C   0  0  0  0  0  0  0  0  0  0  0  0
  -27.1930  -28.6720   20.7780 C   0  0  0  0  0  3  0  0  0  0  0  0
  -26.0240  -26.9250   19.5640 C   0  0  0  0  0  3  0  0  0  0  0  0
  -24.8460  -27.6920   19.5760 C   0  0  0  0  0  3  0  0  0  0  0  0
  -23.6000  -29.8190   20.2450 C   0  0  0  0  0  2  0  0  0  0  0  0
  -24.6610  -31.0770   22.1710 N   0  0  0  0  0  0  0  0  0  0  0  0
  -23.5180  -32.1900   23.7790 O   0  0  0  0  0  0  0  0  0  0  0  0
  -22.7340  -29.4690   22.5840 C   0  0  0  0  0  0  0  0  0  0  0  0
  -21.4100  -29.2870   22.4490 N   0  0  0  0  0  0  0  0  0  0  0  0
  -23.4120  -28.8430   23.4030 O   0  0  0  0  0  0  0  0  0  0  0  0
  -20.9240  -29.8430   21.7590 H   0  0  0  0  0  0  0  0  0  0  0  0
  -18.0320  -28.0900   22.9280 C   0  0  0  0  0  0  0  0  0  0  0  0
  -20.5880  -28.3490   23.2150 C   0  0  0  0  0  3  0  0  0  0  0  0
  -20.6940  -26.9170   22.6390 C   0  0  0  0  0  2  0  0  0  0  0  0
  -19.5980  -26.5950   21.6190 C   0  0  0  0  0  2  0  0  0  0  0  0
  -18.2120  -26.7400   22.2540 C   0  0  0  0  0  2  0  0  0  0  0  0
  -19.1480  -28.8520   23.3650 C   0  0  0  0  0  0  0  0  0  0  0  0
  -18.9250  -30.1150   23.9550 C   0  0  0  0  0  3  0  0  0  0  0  0
  -17.6190  -30.6170   24.1120 C   0  0  0  0  0  3  0  0  0  0  0  0
  -16.5170  -29.8510   23.6920 C   0  0  0  0  0  3  0  0  0  0  0  0
  -16.7240  -28.5900   23.1060 C   0  0  0  0  0  3  0  0  0  0  0  0
  -25.8920  -32.5030   23.8970 C   0  0  0  0  0  3  0  0  0  0  0  0
  -25.5930  -33.9010   24.2310 N   0  0  0  0  0  0  0  0  0  0  0  0
  -25.9160  -34.9510   23.4640 C   0  0  0  0  0  0  0  0  0  0  0  0
  -26.5720  -34.8420   22.4230 O   0  0  0  0  0  0  0  0  0  0  0  0
  -25.0110  -34.0600   25.0390 H   0  0  0  0  0  0  0  0  0  0  0  0
  -24.1820  -36.7410   23.1330 C   0  0  0  0  0  1  0  0  0  0  0  0
  -25.4380  -36.3410   23.9230 C   0  0  0  0  0  3  0  0  0  0  0  0
  -27.5860  -37.2300   24.7120 C   0  0  0  0  0  1  0  0  0  0  0  0
  -26.4700  -37.3920   23.7840 N   0  0  0  0  0  0  0  0  0  0  0  0
  -26.0670  -38.3140   23.9300 H   0  0  0  0  0  0  0  0  0  0  0  0
  -26.3990  -31.7240   25.1730 C   0  0  1  0  0  0  0  0  0  0  0  0
  -25.3010  -31.4910   26.2350 C   0  0  0  0  0  1  0  0  0  0  0  0
  -26.9760  -30.3440   24.7790 C   0  0  0  0  0  1  0  0  0  0  0  0
  -27.5520  -32.5090   25.8400 C   0  0  0  0  0  1  0  0  0  0  0  0
  1  4  2  0
  1  2  1  0
  2  6  2  0
  4  5  1  0
  5  8  1  0
  5  3  2  0
  6 21  1  0
  6  3  1  0
  7  4  1  0
  7  9  1  0
  8 10  1  0
  9 11  1  0
 11 51  1  0
 11 10  1  0
 11 12  1  6
 13 21  1  0
 14 19  1  0
 15 16  1  0
 15 14  1  0
 17 16  1  0
 17 26  1  0
 17 18  1  0
 19 13  1  0
 19 18  1  0
 20 13  2  0
 21 22  1  0
 23 24  2  0
 24 43  1  0
 25 24  1  0
 25 28  1  0
 26 23  1  0
 26 27  1  0
 27 25  2  0
 28 29  1  0
 29 30  2  0
 31 34  1  0
 31 30  1  0
 32 31  2  0
 33 32  1  0
 33 28  2  0
 34 35  1  0
 35 36  1  0
 36 37  2  0
 38 37  1  0
 38 42  1  0
 39 38  2  0
 40 35  2  0
 40 39  1  0
 41 40  1  0
 43 44  1  0
 44 47  1  0
 44 46  1  0
 45 43  2  0
 48 49  1  0
 48 23  1  0
 50 48  1  0
 52 53  1  0
 52 51  1  0
 54 65  2  0
 55 53  1  0
 55 60  1  0
 56 64  1  0
 56 66  1  0
 57 63  1  0
 57 59  1  0
 58 64  1  0
 59 58  1  0
 60 59  2  0
 61 62  1  0
 61 55  2  0
 62 57  2  0
 63 56  1  0
 64 54  1  0
 66 68  2  0
 67 66  1  0
 69 67  1  0
 70 79  2  0
 70 75  1  0
 71 67  1  0
 71 75  1  0
 72 71  1  0
 73 74  1  0
 73 72  1  0
 74 70  1  0
 75 76  2  0
 76 77  1  0
 78 77  2  0
 79 78  1  0
 80 54  1  0
 80 81  1  0
 80 90  1  0
 81 84  1  0
 82 86  1  0
 82 81  1  0
 83 82  2  0
 86 85  1  0
 88 86  1  0
 88 89  1  0
 88 87  1  0
 90 93  1  1
 90 91  1  0
 92 90  1  0
M  ISO  4  13 100  21 100  52 101  53 101
M  END
>  <TORSDO>  (23) 
F 18

>  <SCORE>  (23) 
-14.807

>  <name>  (23) 
22

>  <ligand_id>  (23) 
22

>  <original_smiles>  (23) 
[H]c1c([H])c([H])c2c(c1[H])C([H])([H])C([H])([H])C([H])([H])C2([H])N([H])C(=O)C1([H])N(C(=O)C([H])(N([H])C(=O)C([H])(N([H])C([H])([H])[H])C([H])([H])[H])C(C([H])([H])[H])(C([H])([H])[H])C([H])([H])[H])C([H])([H])c2c([H])c(OC([H])([H])C([H])([H])[N+]3([H])C([H])([H])C([H])([H])c4c([H])c([H])c(N([H])C(=O)N5C([H])([H])C([H])([H])C([H])([H])C([H])(n6nc(-c7c([H])c([H])c(Oc8c([H])c([H])c(F)c([H])c8F)c([H])c7[H])c(C(=O)N([H])[H])c6N([H])[H])C5([H])[H])c([H])c4C([H])([H])C3([H])[H])c([H])c([H])c2C1([H])[H]

>  <smiles>  (23) 
[H]c1c([H])c([H])c2c(c1[H])C([H])([H])C([H])([H])C([H])([H])C2([H])N([H])C(=O)C1([H])N(C(=O)C([H])(N([H])C(=O)C([H])(N([H])C([H])([H])[H])C([H])([H])[H])C(C([H])([H])[H])(C([H])([H])[H])C([H])([H])[H])C([H])([H])c2c([H])c(OC([H])([H])C([H])([H])[N+]3([H])C([H])([H])C([H])([H])c4c([H])c([H])c(N([H])C(=O)N5C([H])([H])C([H])([H])C([H])([H])C([H])(n6nc(-c7c([H])c([H])c(Oc8c([H])c([H])c(F)c([H])c8F)c([H])c7[H])c(C(=O)N([H])[H])c6N([H])[H])C5([H])[H])c([H])c4C([H])([H])C3([H])[H])c([H])c([H])c2C1([H])[H]

$$$$
23:0:0
     RDKit          3D

 94103  0  0  1  0  0  0  0  0999 V2000
  -28.6680  -23.0580   19.5480 C   0  0  0  0  0  3  0  0  0  0  0  0
  -30.8550  -23.1670   21.3490 C   0  0  0  0  0  3  0  0  0  0  0  0
  -29.2710  -21.8760   20.0350 C   0  0  0  0  0  0  0  0  0  0  0  0
  -30.3420  -21.9290   20.9200 C   0  0  0  0  0  0  0  0  0  0  0  0
  -29.1860  -24.3260   19.9370 C   0  0  0  0  0  0  0  0  0  0  0  0
  -30.2880  -24.3670   20.8450 C   0  0  0  0  0  0  0  0  0  0  0  0
  -28.9690  -20.4600   19.7330 C   0  0  0  0  0  0  0  0  0  0  0  0
  -30.8430  -20.5430   21.2860 C   0  0  0  0  0  2  0  0  0  0  0  0
  -30.1370  -19.6020   20.2690 C   0  0  0  0  0  3  0  0  0  0  0  0
  -30.9050  -25.6870   21.2770 C   0  0  0  0  0  1  0  0  0  0  0  0
  -27.9720  -20.0290   19.1460 O   0  0  0  0  0  0  0  0  0  0  0  0
  -29.6210  -18.3110   20.8080 N   0  0  0  0  0  4  0  0  0  0  0  0
  -28.7810  -18.1340   20.2760 H   0  0  0  0  0  0  0  0  0  0  0  0
  -29.3470  -18.4350   21.7690 H   0  0  0  0  0  0  0  0  0  0  0  0
  -30.5480  -17.1460   20.6520 C   0  0  0  0  0  2  0  0  0  0  0  0
  -29.9770  -15.7700   21.1310 C   0  0  0  0  0  2  0  0  0  0  0  0
  -30.6870  -14.5340   20.5070 C   0  0  0  0  0  0  0  0  0  0  0  0
  -30.3960  -12.3850   19.3180 C   0  0  0  0  0  2  0  0  0  0  0  0
  -29.4610  -12.6100   18.1120 C   0  0  0  0  0  2  0  0  0  0  0  0
  -27.9830  -12.4690   18.5300 C   0  0  0  0  0  2  0  0  0  0  0  0
  -27.6420  -13.2920   19.8000 C   0  0  0  0  0  3  0  0  0  0  0  0
  -28.6910  -13.0600   20.9120 C   0  0  0  0  0  2  0  0  0  0  0  0
  -30.0190  -13.3560   20.3580 N   0  0  0  0  0  0  0  0  0  0  0  0
  -31.8210  -14.6950   20.0440 O   0  0  0  0  0  0  0  0  0  0  0  0
  -25.2380  -13.9050   20.4850 C   0  0  0  0  0  0  0  0  0  0  0  0
  -24.1660  -13.1360   20.8490 C   0  0  0  0  0  0  0  0  0  0  0  0
  -24.6270  -11.7840   20.8310 C   0  0  0  0  0  0  0  0  0  0  0  0
  -26.2850  -13.0220   20.2690 N   0  0  0  0  0  0  0  0  0  0  0  0
  -25.9200  -11.7420   20.5350 N   0  0  0  0  0  0  0  0  0  0  0  0
  -23.8980  -10.5240   21.0200 C   0  0  0  0  0  0  0  0  0  0  0  0
  -24.3200   -9.5620   21.9660 C   0  0  0  0  0  3  0  0  0  0  0  0
  -23.5920   -8.3660   22.1430 C   0  0  0  0  0  3  0  0  0  0  0  0
  -22.4310   -8.1220   21.3730 C   0  0  0  0  0  0  0  0  0  0  0  0
  -22.0290   -9.0710   20.4170 C   0  0  0  0  0  3  0  0  0  0  0  0
  -22.7570  -10.2590   20.2390 C   0  0  0  0  0  3  0  0  0  0  0  0
  -21.6760   -6.9760   21.4590 O   0  0  0  0  0  0  0  0  0  0  0  0
  -21.6110   -6.2420   22.6160 C   0  0  0  0  0  0  0  0  0  0  0  0
  -21.1590   -6.8050   23.8300 C   0  0  0  0  0  3  0  0  0  0  0  0
  -21.0420   -5.9970   24.9790 C   0  0  0  0  0  3  0  0  0  0  0  0
  -21.3640   -4.6280   24.9140 C   0  0  0  0  0  0  0  0  0  0  0  0
  -21.8090   -4.0650   23.7050 C   0  0  0  0  0  3  0  0  0  0  0  0
  -21.9290   -4.8710   22.5580 C   0  0  0  0  0  0  0  0  0  0  0  0
  -22.3370   -4.3200   21.3900 F   0  0  0  0  0  0  0  0  0  0  0  0
  -21.2450   -3.8500   26.0150 F   0  0  0  0  0  0  0  0  0  0  0  0
  -22.7670  -13.6160   21.1040 C   0  0  0  0  0  0  0  0  0  0  0  0
  -22.0270  -12.9200   21.9610 N   0  0  0  0  0  0  0  0  0  0  0  0
  -22.3360  -14.6420   20.5780 O   0  0  0  0  0  0  0  0  0  0  0  0
  -22.3880  -12.0900   22.4080 H   0  0  0  0  0  0  0  0  0  0  0  0
  -21.0870  -13.2240   22.1750 H   0  0  0  0  0  0  0  0  0  0  0  0
  -25.4060  -15.2740   20.2990 N   0  0  0  0  0  0  0  0  0  0  0  0
  -24.6340  -15.9270   20.3840 H   0  0  0  0  0  0  0  0  0  0  0  0
  -26.2480  -15.7030   19.9420 H   0  0  0  0  0  0  0  0  0  0  0  0
  -28.6310  -25.5980   19.2640 C   0  0  0  0  0  2  0  0  0  0  0  0
  -28.3860  -26.7180   20.1410 O   0  0  0  0  0  0  0  0  0  0  0  0
  -24.5810  -31.9040   23.2120 C   0  0  0  0  0  0  0  0  0  0  0  0
  -27.1970  -27.4310   20.1060 C   0  0  0  0  0  0  0  0  0  0  0  0
  -23.3620  -30.4950   21.5890 C   0  0  0  0  0  3  0  0  0  0  0  0
  -24.8000  -28.9550   20.1510 C   0  0  0  0  0  0  0  0  0  0  0  0
  -25.8900  -30.8420   21.3750 C   0  0  0  0  0  2  0  0  0  0  0  0
  -25.9650  -29.4710   20.7300 C   0  0  0  0  0  0  0  0  0  0  0  0
  -27.1610  -28.7140   20.7080 C   0  0  0  0  0  3  0  0  0  0  0  0
  -26.0000  -26.9280   19.5430 C   0  0  0  0  0  3  0  0  0  0  0  0
  -24.8130  -27.6830   19.5590 C   0  0  0  0  0  3  0  0  0  0  0  0
  -23.5590  -29.8160   20.2090 C   0  0  0  0  0  2  0  0  0  0  0  0
  -24.6300  -31.0910   22.1190 N   0  0  0  0  0  0  0  0  0  0  0  0
  -23.4990  -32.2020   23.7370 O   0  0  0  0  0  0  0  0  0  0  0  0
  -22.7170  -29.4750   22.5550 C   0  0  0  0  0  0  0  0  0  0  0  0
  -21.3910  -29.2920   22.4390 N   0  0  0  0  0  0  0  0  0  0  0  0
  -23.4060  -28.8480   23.3660 O   0  0  0  0  0  0  0  0  0  0  0  0
  -20.8960  -29.8510   21.7560 H   0  0  0  0  0  0  0  0  0  0  0  0
  -18.0200  -28.0990   22.9580 C   0  0  0  0  0  0  0  0  0  0  0  0
  -20.5790  -28.3550   23.2140 C   0  0  0  0  0  3  0  0  0  0  0  0
  -20.6770  -26.9240   22.6370 C   0  0  0  0  0  2  0  0  0  0  0  0
  -19.5680  -26.6030   21.6290 C   0  0  0  0  0  2  0  0  0  0  0  0
  -18.1900  -26.7500   22.2810 C   0  0  0  0  0  2  0  0  0  0  0  0
  -19.1420  -28.8600   23.3820 C   0  0  0  0  0  0  0  0  0  0  0  0
  -18.9280  -30.1240   23.9730 C   0  0  0  0  0  3  0  0  0  0  0  0
  -17.6250  -30.6280   24.1460 C   0  0  0  0  0  3  0  0  0  0  0  0
  -16.5180  -29.8640   23.7400 C   0  0  0  0  0  3  0  0  0  0  0  0
  -16.7160  -28.6010   23.1520 C   0  0  0  0  0  3  0  0  0  0  0  0
  -25.8730  -32.5240   23.8310 C   0  0  0  0  0  3  0  0  0  0  0  0
  -26.3980  -31.7480   25.1020 C   0  0  1  0  0  0  0  0  0  0  0  0
  -25.3120  -31.5100   26.1750 C   0  0  0  0  0  1  0  0  0  0  0  0
  -26.9770  -30.3710   24.7010 C   0  0  0  0  0  1  0  0  0  0  0  0
  -27.5550  -32.5380   25.7580 C   0  0  0  0  0  1  0  0  0  0  0  0
  -25.5720  -33.9220   24.1670 N   0  0  0  0  0  0  0  0  0  0  0  0
  -25.8990  -34.9730   23.4040 C   0  0  0  0  0  0  0  0  0  0  0  0
  -26.5600  -34.8680   22.3660 O   0  0  0  0  0  0  0  0  0  0  0  0
  -24.9850  -34.0780   24.9730 H   0  0  0  0  0  0  0  0  0  0  0  0
  -24.1730  -36.7690   23.0570 C   0  0  0  0  0  1  0  0  0  0  0  0
  -25.4170  -36.3620   23.8640 C   0  0  0  0  0  3  0  0  0  0  0  0
  -27.5540  -37.2400   24.6900 C   0  0  0  0  0  1  0  0  0  0  0  0
  -26.4510  -37.4110   23.7490 N   0  0  0  0  0  0  0  0  0  0  0  0
  -26.0480  -38.3330   23.8980 H   0  0  0  0  0  0  0  0  0  0  0  0
  1  5  2  0
  1  3  1  0
  3  4  2  0
  4  8  1  0
  4  2  1  0
  5  6  1  0
  6 10  1  0
  6  2  2  0
  7  3  1  0
  7  9  1  0
  9 12  1  0
  9  8  1  0
 11  7  2  0
 12 14  1  0
 13 12  1  0
 15 12  1  0
 15 16  1  0
 17 16  1  0
 18 23  1  0
 19 20  1  0
 19 18  1  0
 21 20  1  0
 21 28  1  0
 21 22  1  0
 23 17  1  0
 23 22  1  0
 24 17  2  0
 25 26  2  0
 26 45  1  0
 27 26  1  0
 27 30  1  0
 28 25  1  0
 28 29  1  0
 29 27  2  0
 30 31  1  0
 31 32  2  0
 33 36  1  0
 33 32  1  0
 34 33  2  0
 35 34  1  0
 35 30  2  0
 36 37  1  0
 37 38  1  0
 38 39  2  0
 40 39  1  0
 40 44  1  0
 41 40  2  0
 42 37  2  0
 42 41  1  0
 43 42  1  0
 45 46  1  0
 46 49  1  0
 46 48  1  0
 47 45  2  0
 50 51  1  0
 50 25  1  0
 52 50  1  0
 53  5  1  0
 53 54  1  0
 55 66  2  0
 56 54  1  0
 56 61  1  0
 57 65  1  0
 57 67  1  0
 58 64  1  0
 58 60  1  0
 59 65  1  0
 60 59  1  0
 61 60  2  0
 62 63  1  0
 62 56  2  0
 63 58  2  0
 64 57  1  0
 65 55  1  0
 67 69  2  0
 68 67  1  0
 70 68  1  0
 71 80  2  0
 71 76  1  0
 72 68  1  0
 72 76  1  0
 73 72  1  0
 74 75  1  0
 74 73  1  0
 75 71  1  0
 76 77  2  0
 77 78  1  0
 79 78  2  0
 80 79  1  0
 81 55  1  0
 81 86  1  0
 81 82  1  0
 82 85  1  1
 82 83  1  0
 84 82  1  0
 86 89  1  0
 87 91  1  0
 87 86  1  0
 88 87  2  0
 91 90  1  0
 93 91  1  0
 93 94  1  0
 93 92  1  0
M  ISO  4  16 100  17 100  53 101  54 101
M  END
>  <TORSDO>  (24) 
F 20

>  <SCORE>  (24) 
-14.189

>  <name>  (24) 
23

>  <ligand_id>  (24) 
23

>  <original_smiles>  (24) 
[H]c1c([H])c([H])c2c(c1[H])C([H])([H])C([H])([H])C([H])([H])C2([H])N([H])C(=O)C1([H])N(C(=O)C([H])(N([H])C(=O)C([H])(N([H])C([H])([H])[H])C([H])([H])[H])C(C([H])([H])[H])(C([H])([H])[H])C([H])([H])[H])C([H])([H])c2c([H])c(OC([H])([H])c3c([H])c4c(c([H])c3C([H])([H])[H])C([H])([H])C([H])([N+]([H])([H])C([H])([H])C([H])([H])C(=O)N3C([H])([H])C([H])([H])C([H])([H])C([H])(n5nc(-c6c([H])c([H])c(Oc7c([H])c([H])c(F)c([H])c7F)c([H])c6[H])c(C(=O)N([H])[H])c5N([H])[H])C3([H])[H])C4=O)c([H])c([H])c2C1([H])[H]

>  <smiles>  (24) 
[H]c1c([H])c([H])c2c(c1[H])C([H])([H])C([H])([H])C([H])([H])C2([H])N([H])C(=O)C1([H])N(C(=O)C([H])(N([H])C(=O)C([H])(N([H])C([H])([H])[H])C([H])([H])[H])C(C([H])([H])[H])(C([H])([H])[H])C([H])([H])[H])C([H])([H])c2c([H])c(OC([H])([H])c3c([H])c4c(c([H])c3C([H])([H])[H])C([H])([H])C([H])([N+]([H])([H])C([H])([H])C([H])([H])C(=O)N3C([H])([H])C([H])([H])C([H])([H])C([H])(n5nc(-c6c([H])c([H])c(Oc7c([H])c([H])c(F)c([H])c7F)c([H])c6[H])c(C(=O)N([H])[H])c5N([H])[H])C3([H])[H])C4=O)c([H])c([H])c2C1([H])[H]

$$$$
24:0:0
     RDKit          3D

 91 98  0  0  1  0  0  0  0  0999 V2000
  -29.1360  -22.0200   19.6200 C   0  0  0  0  0  0  0  0  0  0  0  0
  -29.9670  -23.0830   19.7310 N   0  0  0  0  0  0  0  0  0  0  0  0
  -27.9280  -22.1260   19.4020 O   0  0  0  0  0  0  0  0  0  0  0  0
  -30.9190  -22.8080   19.9320 H   0  0  0  0  0  0  0  0  0  0  0  0
  -29.4500  -19.6290   20.3470 C   0  0  0  0  0  3  0  0  0  0  0  0
  -29.8800  -20.7520   19.7110 C   0  0  0  0  0  3  0  0  0  0  0  0
  -29.9770  -17.4930   21.4390 C   0  0  0  0  0  3  0  0  0  0  0  0
  -30.2370  -18.3800   20.4460 C   0  0  0  0  0  0  0  0  0  0  0  0
  -31.3230  -18.0580   19.4340 C   0  0  0  0  0  1  0  0  0  0  0  0
  -30.7720  -16.2310   21.7760 C   0  0  0  0  0  2  0  0  0  0  0  0
  -30.8650  -14.2190   20.2960 C   0  0  0  0  0  0  0  0  0  0  0  0
  -30.4650  -12.1550   18.9940 C   0  0  0  0  0  2  0  0  0  0  0  0
  -29.4990  -12.5120   17.8500 C   0  0  0  0  0  2  0  0  0  0  0  0
  -28.0410  -12.3620   18.3370 C   0  0  0  0  0  2  0  0  0  0  0  0
  -27.7850  -13.1380   19.6640 C   0  0  0  0  0  3  0  0  0  0  0  0
  -28.8650  -12.7460   20.6970 C   0  0  0  0  0  2  0  0  0  0  0  0
  -30.1780  -13.0720   20.1010 N   0  0  0  0  0  0  0  0  0  0  0  0
  -31.9320  -14.5070   19.7330 O   0  0  0  0  0  0  0  0  0  0  0  0
  -30.2510  -15.0270   21.1540 N   0  0  0  0  0  0  0  0  0  0  0  0
  -29.3870  -14.6510   21.5110 H   0  0  0  0  0  0  0  0  0  0  0  0
  -25.4220  -13.8210   20.4300 C   0  0  0  0  0  0  0  0  0  0  0  0
  -24.3480  -13.0820   20.8280 C   0  0  0  0  0  0  0  0  0  0  0  0
  -24.7700  -11.7150   20.7810 C   0  0  0  0  0  0  0  0  0  0  0  0
  -26.4370  -12.9120   20.1730 N   0  0  0  0  0  0  0  0  0  0  0  0
  -26.0470  -11.6400   20.4350 N   0  0  0  0  0  0  0  0  0  0  0  0
  -24.0240  -10.4730   20.9880 C   0  0  0  0  0  0  0  0  0  0  0  0
  -24.4690   -9.4940   21.9060 C   0  0  0  0  0  3  0  0  0  0  0  0
  -23.7310   -8.3080   22.1010 C   0  0  0  0  0  3  0  0  0  0  0  0
  -22.5370   -8.0900   21.3740 C   0  0  0  0  0  0  0  0  0  0  0  0
  -22.1090   -9.0610   20.4490 C   0  0  0  0  0  3  0  0  0  0  0  0
  -22.8440  -10.2400   20.2530 C   0  0  0  0  0  3  0  0  0  0  0  0
  -21.7690   -6.9570   21.4750 O   0  0  0  0  0  0  0  0  0  0  0  0
  -21.7330   -6.2120   22.6260 C   0  0  0  0  0  0  0  0  0  0  0  0
  -21.3330   -6.7710   23.8590 C   0  0  0  0  0  3  0  0  0  0  0  0
  -21.2450   -5.9560   25.0070 C   0  0  0  0  0  3  0  0  0  0  0  0
  -21.5420   -4.5830   24.9200 C   0  0  0  0  0  0  0  0  0  0  0  0
  -21.9350   -4.0230   23.6930 C   0  0  0  0  0  3  0  0  0  0  0  0
  -22.0290   -4.8370   22.5480 C   0  0  0  0  0  0  0  0  0  0  0  0
  -22.3860   -4.2870   21.3610 F   0  0  0  0  0  0  0  0  0  0  0  0
  -21.4520   -3.7990   26.0190 F   0  0  0  0  0  0  0  0  0  0  0  0
  -22.9690  -13.5920   21.1410 C   0  0  0  0  0  0  0  0  0  0  0  0
  -22.2470  -12.9150   22.0220 N   0  0  0  0  0  0  0  0  0  0  0  0
  -22.5400  -14.6320   20.6380 O   0  0  0  0  0  0  0  0  0  0  0  0
  -22.5970  -12.0700   22.4470 H   0  0  0  0  0  0  0  0  0  0  0  0
  -21.3310  -13.2510   22.2790 H   0  0  0  0  0  0  0  0  0  0  0  0
  -25.6240  -15.1900   20.2410 N   0  0  0  0  0  0  0  0  0  0  0  0
  -24.8790  -15.8650   20.3620 H   0  0  0  0  0  0  0  0  0  0  0  0
  -26.4640  -15.5920   19.8440 H   0  0  0  0  0  0  0  0  0  0  0  0
  -29.8640  -24.5210   19.3340 C   0  0  0  0  0  2  0  0  0  0  0  0
  -28.5050  -25.3200   19.4480 C   0  0  0  0  0  2  0  0  0  0  0  0
  -28.4580  -26.6060   20.1600 O   0  0  0  0  0  0  0  0  0  0  0  0
  -24.5960  -31.9090   23.2510 C   0  0  0  0  0  0  0  0  0  0  0  0
  -27.2730  -27.3660   20.1720 C   0  0  0  0  0  0  0  0  0  0  0  0
  -23.3960  -30.4920   21.6030 C   0  0  0  0  0  3  0  0  0  0  0  0
  -24.8800  -28.9290   20.2140 C   0  0  0  0  0  0  0  0  0  0  0  0
  -25.9510  -30.8120   21.4780 C   0  0  0  0  0  2  0  0  0  0  0  0
  -26.0400  -29.4410   20.8090 C   0  0  0  0  0  0  0  0  0  0  0  0
  -27.2360  -28.6620   20.7820 C   0  0  0  0  0  3  0  0  0  0  0  0
  -26.0710  -26.8900   19.5970 C   0  0  0  0  0  3  0  0  0  0  0  0
  -24.8900  -27.6650   19.6090 C   0  0  0  0  0  3  0  0  0  0  0  0
  -23.6400  -29.7890   20.2370 C   0  0  0  0  0  2  0  0  0  0  0  0
  -24.6580  -31.0930   22.1610 N   0  0  0  0  0  0  0  0  0  0  0  0
  -23.5100  -32.2070   23.7630 O   0  0  0  0  0  0  0  0  0  0  0  0
  -22.7260  -29.4900   22.5770 C   0  0  0  0  0  0  0  0  0  0  0  0
  -21.3990  -29.3060   22.4540 N   0  0  0  0  0  0  0  0  0  0  0  0
  -23.4100  -28.8770   23.4020 O   0  0  0  0  0  0  0  0  0  0  0  0
  -20.9140  -29.8530   21.7540 H   0  0  0  0  0  0  0  0  0  0  0  0
  -18.0170  -28.0900   22.9750 C   0  0  0  0  0  0  0  0  0  0  0  0
  -20.5780  -28.3730   23.2370 C   0  0  0  0  0  3  0  0  0  0  0  0
  -20.6840  -26.9330   22.6820 C   0  0  0  0  0  2  0  0  0  0  0  0
  -19.5820  -26.5830   21.6750 C   0  0  0  0  0  2  0  0  0  0  0  0
  -18.2000  -26.7330   22.3130 C   0  0  0  0  0  2  0  0  0  0  0  0
  -19.1330  -28.8660   23.3930 C   0  0  0  0  0  0  0  0  0  0  0  0
  -18.9060  -30.1340   23.9700 C   0  0  0  0  0  3  0  0  0  0  0  0
  -17.6000  -30.6320   24.1250 C   0  0  0  0  0  3  0  0  0  0  0  0
  -16.4990  -29.8550   23.7230 C   0  0  0  0  0  3  0  0  0  0  0  0
  -16.7100  -28.5830   23.1600 C   0  0  0  0  0  3  0  0  0  0  0  0
  -25.8880  -32.5310   23.8800 C   0  0  0  0  0  3  0  0  0  0  0  0
  -25.5900  -33.9300   24.2080 N   0  0  0  0  0  0  0  0  0  0  0  0
  -25.9100  -34.9710   23.4300 C   0  0  0  0  0  0  0  0  0  0  0  0
  -26.5610  -34.8560   22.3880 O   0  0  0  0  0  0  0  0  0  0  0  0
  -25.0640  -34.1000   25.0520 H   0  0  0  0  0  0  0  0  0  0  0  0
  -24.1910  -36.7520   23.0700 C   0  0  0  0  0  1  0  0  0  0  0  0
  -25.4300  -36.3590   23.8870 C   0  0  0  0  0  3  0  0  0  0  0  0
  -27.5620  -37.2320   24.7300 C   0  0  0  0  0  1  0  0  0  0  0  0
  -26.4710  -37.4020   23.7720 N   0  0  0  0  0  0  0  0  0  0  0  0
  -26.0680  -38.3230   23.9120 H   0  0  0  0  0  0  0  0  0  0  0  0
  -26.4100  -31.7620   25.1540 C   0  0  1  0  0  0  0  0  0  0  0  0
  -25.3180  -31.5420   26.2190 C   0  0  0  0  0  1  0  0  0  0  0  0
  -27.0030  -30.3790   24.7940 C   0  0  0  0  0  1  0  0  0  0  0  0
  -27.5610  -32.5650   25.8030 C   0  0  0  0  0  1  0  0  0  0  0  0
  1  6  1  0
  1  2  1  0
  2  4  1  0
  3  1  2  0
  5  8  1  0
  6  5  2  0
  7 10  1  0
  8  7  2  0
  9  8  1  0
 11 19  1  0
 12 17  1  0
 13 14  1  0
 13 12  1  0
 15 14  1  0
 15 24  1  0
 15 16  1  0
 17 11  1  0
 17 16  1  0
 18 11  2  0
 19 20  1  0
 19 10  1  0
 21 22  2  0
 22 41  1  0
 23 22  1  0
 23 26  1  0
 24 21  1  0
 24 25  1  0
 25 23  2  0
 26 27  1  0
 27 28  2  0
 29 32  1  0
 29 28  1  0
 30 29  2  0
 31 30  1  0
 31 26  2  0
 32 33  1  0
 33 34  1  0
 34 35  2  0
 36 35  1  0
 36 40  1  0
 37 36  2  0
 38 33  2  0
 38 37  1  0
 39 38  1  0
 41 42  1  0
 42 45  1  0
 42 44  1  0
 43 41  2  0
 46 47  1  0
 46 21  1  0
 48 46  1  0
 49 50  1  0
 49  2  1  0
 50 51  1  0
 51 53  1  0
 52 63  2  0
 53 58  1  0
 54 62  1  0
 54 64  1  0
 55 61  1  0
 55 57  1  0
 56 62  1  0
 57 56  1  0
 58 57  2  0
 59 60  1  0
 59 53  2  0
 60 55  2  0
 61 54  1  0
 62 52  1  0
 64 66  2  0
 65 64  1  0
 67 65  1  0
 68 77  2  0
 68 73  1  0
 69 65  1  0
 69 73  1  0
 70 69  1  0
 71 72  1  0
 71 70  1  0
 72 68  1  0
 73 74  2  0
 74 75  1  0
 76 75  2  0
 77 76  1  0
 78 52  1  0
 78 79  1  0
 78 88  1  0
 79 82  1  0
 80 84  1  0
 80 79  1  0
 81 80  2  0
 84 83  1  0
 86 84  1  0
 86 87  1  0
 86 85  1  0
 88 91  1  1
 88 89  1  0
 90 88  1  0
M  ISO  4  11 100  19 100  50 101  51 101
M  END
>  <TORSDO>  (25) 
F 21

>  <SCORE>  (25) 
-13.475

>  <name>  (25) 
24

>  <ligand_id>  (25) 
24

>  <original_smiles>  (25) 
[H]C(C(=O)N([H])C([H])([H])C([H])([H])Oc1c([H])c([H])c2c(c1[H])C([H])([H])N(C(=O)C([H])(N([H])C(=O)C([H])(N([H])C([H])([H])[H])C([H])([H])[H])C(C([H])([H])[H])(C([H])([H])[H])C([H])([H])[H])C([H])(C(=O)N([H])C1([H])c3c([H])c([H])c([H])c([H])c3C([H])([H])C([H])([H])C1([H])[H])C2([H])[H])=C([H])C(=C([H])C([H])([H])N([H])C(=O)N1C([H])([H])C([H])([H])C([H])([H])C([H])(n2nc(-c3c([H])c([H])c(Oc4c([H])c([H])c(F)c([H])c4F)c([H])c3[H])c(C(=O)N([H])[H])c2N([H])[H])C1([H])[H])C([H])([H])[H]

>  <smiles>  (25) 
[H]C(C(=O)N([H])C([H])([H])C([H])([H])Oc1c([H])c([H])c2c(c1[H])C([H])([H])N(C(=O)C([H])(N([H])C(=O)C([H])(N([H])C([H])([H])[H])C([H])([H])[H])C(C([H])([H])[H])(C([H])([H])[H])C([H])([H])[H])C([H])(C(=O)N([H])C1([H])c3c([H])c([H])c([H])c([H])c3C([H])([H])C([H])([H])C1([H])[H])C2([H])[H])=C([H])C(=C([H])C([H])([H])N([H])C(=O)N1C([H])([H])C([H])([H])C([H])([H])C([H])(n2nc(-c3c([H])c([H])c(Oc4c([H])c([H])c(F)c([H])c4F)c([H])c3[H])c(C(=O)N([H])[H])c2N([H])[H])C1([H])[H])C([H])([H])[H]

$$$$
25:0:0
     RDKit          3D

 89 97  0  0  1  0  0  0  0  0999 V2000
  -28.6210  -23.1270   18.7780 C   0  0  0  0  0  3  0  0  0  0  0  0
  -28.9010  -23.0620   20.1240 C   0  0  0  0  0  0  0  0  0  0  0  0
  -28.4330  -25.3120   19.8990 C   0  0  0  0  0  0  0  0  0  0  0  0
  -28.7920  -24.3300   20.7470 N   0  0  0  0  0  0  0  0  0  0  0  0
  -28.2780  -24.7560   18.2330 S   0  0  0  0  0  0  0  0  0  0  0  0
  -29.3260  -21.7710   20.7730 C   0  0  0  0  0  3  0  0  0  0  0  0
  -29.3280  -20.5900   20.2500 N   0  0  0  0  0  0  0  0  0  0  0  0
  -29.9230  -19.5000   21.0460 C   0  0  0  0  0  2  0  0  0  0  0  0
  -29.5750  -18.0630   20.5320 C   0  0  0  0  0  2  0  0  0  0  0  0
  -30.3750  -16.9280   21.2580 C   0  0  0  0  0  2  0  0  0  0  0  0
  -30.6400  -14.5120   20.4850 C   0  0  0  0  0  0  0  0  0  0  0  0
  -30.3620  -12.3340   19.3460 C   0  0  0  0  0  2  0  0  0  0  0  0
  -29.4190  -12.5150   18.1380 C   0  0  0  0  0  2  0  0  0  0  0  0
  -27.9440  -12.3750   18.5680 C   0  0  0  0  0  2  0  0  0  0  0  0
  -27.6030  -13.2220   19.8230 C   0  0  0  0  0  3  0  0  0  0  0  0
  -28.6580  -13.0170   20.9330 C   0  0  0  0  0  2  0  0  0  0  0  0
  -29.9760  -13.3280   20.3610 N   0  0  0  0  0  0  0  0  0  0  0  0
  -31.7810  -14.6820   20.0470 O   0  0  0  0  0  0  0  0  0  0  0  0
  -29.9210  -15.5420   20.9900 N   0  0  0  0  0  0  0  0  0  0  0  0
  -28.9830  -15.3100   21.2830 H   0  0  0  0  0  0  0  0  0  0  0  0
  -25.2070  -13.8380   20.5260 C   0  0  0  0  0  0  0  0  0  0  0  0
  -24.1360  -13.0710   20.8990 C   0  0  0  0  0  0  0  0  0  0  0  0
  -24.5940  -11.7180   20.8760 C   0  0  0  0  0  0  0  0  0  0  0  0
  -26.2500  -12.9530   20.3020 N   0  0  0  0  0  0  0  0  0  0  0  0
  -25.8850  -11.6730   20.5700 N   0  0  0  0  0  0  0  0  0  0  0  0
  -23.8640  -10.4580   21.0710 C   0  0  0  0  0  0  0  0  0  0  0  0
  -24.3080   -9.4820   21.9900 C   0  0  0  0  0  3  0  0  0  0  0  0
  -23.5790   -8.2880   22.1730 C   0  0  0  0  0  3  0  0  0  0  0  0
  -22.3920   -8.0600   21.4370 C   0  0  0  0  0  0  0  0  0  0  0  0
  -21.9670   -9.0240   20.5060 C   0  0  0  0  0  3  0  0  0  0  0  0
  -22.6970  -10.2110   20.3220 C   0  0  0  0  0  3  0  0  0  0  0  0
  -21.6340   -6.9180   21.5290 O   0  0  0  0  0  0  0  0  0  0  0  0
  -21.6170   -6.1560   22.6700 C   0  0  0  0  0  0  0  0  0  0  0  0
  -21.2480   -6.6960   23.9210 C   0  0  0  0  0  3  0  0  0  0  0  0
  -21.1780   -5.8610   25.0540 C   0  0  0  0  0  3  0  0  0  0  0  0
  -21.4650   -4.4890   24.9390 C   0  0  0  0  0  0  0  0  0  0  0  0
  -21.8260   -3.9480   23.6920 C   0  0  0  0  0  3  0  0  0  0  0  0
  -21.8990   -4.7790   22.5600 C   0  0  0  0  0  0  0  0  0  0  0  0
  -22.2270   -4.2500   21.3570 F   0  0  0  0  0  0  0  0  0  0  0  0
  -21.3890   -3.6850   26.0250 F   0  0  0  0  0  0  0  0  0  0  0  0
  -22.7390  -13.5530   21.1650 C   0  0  0  0  0  0  0  0  0  0  0  0
  -22.0080  -12.8640   22.0350 N   0  0  0  0  0  0  0  0  0  0  0  0
  -22.3040  -14.5760   20.6370 O   0  0  0  0  0  0  0  0  0  0  0  0
  -22.3740  -12.0360   22.4840 H   0  0  0  0  0  0  0  0  0  0  0  0
  -21.0710  -13.1690   22.2560 H   0  0  0  0  0  0  0  0  0  0  0  0
  -25.3760  -15.2070   20.3430 N   0  0  0  0  0  0  0  0  0  0  0  0
  -24.6090  -15.8640   20.4420 H   0  0  0  0  0  0  0  0  0  0  0  0
  -26.2260  -15.6410   20.0020 H   0  0  0  0  0  0  0  0  0  0  0  0
  -28.3930  -26.6510   20.1490 O   0  0  0  0  0  0  0  0  0  0  0  0
  -24.6210  -31.8870   23.2370 C   0  0  0  0  0  0  0  0  0  0  0  0
  -27.2130  -27.3860   20.1440 C   0  0  0  0  0  0  0  0  0  0  0  0
  -23.3950  -30.4830   21.6170 C   0  0  0  0  0  3  0  0  0  0  0  0
  -24.8260  -28.9330   20.1810 C   0  0  0  0  0  0  0  0  0  0  0  0
  -25.9250  -30.8170   21.3980 C   0  0  0  0  0  2  0  0  0  0  0  0
  -25.9950  -29.4430   20.7570 C   0  0  0  0  0  0  0  0  0  0  0  0
  -27.1890  -28.6780   20.7330 C   0  0  0  0  0  3  0  0  0  0  0  0
  -26.0130  -26.8970   19.5740 C   0  0  0  0  0  3  0  0  0  0  0  0
  -24.8310  -27.6610   19.5880 C   0  0  0  0  0  3  0  0  0  0  0  0
  -23.5890  -29.8030   20.2360 C   0  0  0  0  0  2  0  0  0  0  0  0
  -24.6660  -31.0750   22.1440 N   0  0  0  0  0  0  0  0  0  0  0  0
  -23.5400  -32.1900   23.7620 O   0  0  0  0  0  0  0  0  0  0  0  0
  -22.7470  -29.4660   22.5840 C   0  0  0  0  0  0  0  0  0  0  0  0
  -21.4220  -29.2810   22.4600 N   0  0  0  0  0  0  0  0  0  0  0  0
  -23.4330  -28.8460   23.4020 O   0  0  0  0  0  0  0  0  0  0  0  0
  -20.9310  -29.8330   21.7710 H   0  0  0  0  0  0  0  0  0  0  0  0
  -18.0540  -28.0650   22.9530 C   0  0  0  0  0  0  0  0  0  0  0  0
  -20.6080  -28.3450   23.2360 C   0  0  0  0  0  3  0  0  0  0  0  0
  -20.7250  -26.9090   22.6740 C   0  0  0  0  0  2  0  0  0  0  0  0
  -19.6310  -26.5680   21.6570 C   0  0  0  0  0  2  0  0  0  0  0  0
  -18.2450  -26.7090   22.2930 C   0  0  0  0  0  2  0  0  0  0  0  0
  -19.1650  -28.8390   23.3820 C   0  0  0  0  0  0  0  0  0  0  0  0
  -18.9330  -30.1070   23.9580 C   0  0  0  0  0  3  0  0  0  0  0  0
  -17.6240  -30.6000   24.1110 C   0  0  0  0  0  3  0  0  0  0  0  0
  -16.5280  -29.8230   23.6990 C   0  0  0  0  0  3  0  0  0  0  0  0
  -16.7440  -28.5570   23.1260 C   0  0  0  0  0  3  0  0  0  0  0  0
  -25.9150  -32.5050   23.8550 C   0  0  0  0  0  3  0  0  0  0  0  0
  -26.4450  -31.7210   25.1180 C   0  0  1  0  0  0  0  0  0  0  0  0
  -25.3640  -31.4770   26.1960 C   0  0  0  0  0  1  0  0  0  0  0  0
  -27.0190  -30.3450   24.7060 C   0  0  0  0  0  1  0  0  0  0  0  0
  -27.6060  -32.5050   25.7730 C   0  0  0  0  0  1  0  0  0  0  0  0
  -25.6150  -33.9000   24.2010 N   0  0  0  0  0  0  0  0  0  0  0  0
  -25.9280  -34.9570   23.4390 C   0  0  0  0  0  0  0  0  0  0  0  0
  -26.5750  -34.8580   22.3930 O   0  0  0  0  0  0  0  0  0  0  0  0
  -25.0360  -34.0500   25.0140 H   0  0  0  0  0  0  0  0  0  0  0  0
  -24.1820  -36.7420   23.1390 C   0  0  0  0  0  1  0  0  0  0  0  0
  -25.4470  -36.3420   23.9120 C   0  0  0  0  0  3  0  0  0  0  0  0
  -27.6030  -37.2320   24.6810 C   0  0  0  0  0  1  0  0  0  0  0  0
  -26.4730  -37.3990   23.7720 N   0  0  0  0  0  0  0  0  0  0  0  0
  -26.0670  -38.3180   23.9340 H   0  0  0  0  0  0  0  0  0  0  0  0
  1  2  2  0
  2  4  1  0
  2  6  1  0
  3 49  1  0
  3  4  2  0
  5  1  1  0
  5  3  1  0
  7  6  2  0
  7  8  1  0
  9  8  1  0
  9 10  1  0
 11 19  1  0
 12 17  1  0
 13 14  1  0
 13 12  1  0
 15 14  1  0
 15 24  1  0
 15 16  1  0
 17 11  1  0
 17 16  1  0
 18 11  2  0
 19 10  1  0
 19 20  1  0
 21 22  2  0
 22 41  1  0
 23 22  1  0
 23 26  1  0
 24 21  1  0
 24 25  1  0
 25 23  2  0
 26 27  1  0
 27 28  2  0
 29 32  1  0
 29 28  1  0
 30 29  2  0
 31 30  1  0
 31 26  2  0
 32 33  1  0
 33 34  1  0
 34 35  2  0
 36 35  1  0
 36 40  1  0
 37 36  2  0
 38 33  2  0
 38 37  1  0
 39 38  1  0
 41 42  1  0
 42 45  1  0
 42 44  1  0
 43 41  2  0
 46 47  1  0
 46 21  1  0
 48 46  1  0
 50 61  2  0
 51 49  1  0
 51 56  1  0
 52 60  1  0
 52 62  1  0
 53 59  1  0
 53 55  1  0
 54 60  1  0
 55 54  1  0
 56 55  2  0
 57 58  1  0
 57 51  2  0
 58 53  2  0
 59 52  1  0
 60 50  1  0
 62 64  2  0
 63 62  1  0
 65 63  1  0
 66 75  2  0
 66 71  1  0
 67 63  1  0
 67 71  1  0
 68 67  1  0
 69 70  1  0
 69 68  1  0
 70 66  1  0
 71 72  2  0
 72 73  1  0
 74 73  2  0
 75 74  1  0
 76 50  1  0
 76 81  1  0
 76 77  1  0
 77 80  1  1
 77 78  1  0
 79 77  1  0
 81 84  1  0
 82 86  1  0
 82 81  1  0
 83 82  2  0
 86 85  1  0
 88 86  1  0
 88 89  1  0
 88 87  1  0
M  ISO  4   3 101  11 100  19 100  49 101
M  END
>  <TORSDO>  (26) 
F 20

>  <SCORE>  (26) 
-13.731

>  <name>  (26) 
25

>  <ligand_id>  (26) 
25

>  <original_smiles>  (26) 
[H]C(=NC([H])([H])C([H])([H])C([H])([H])N([H])C(=O)N1C([H])([H])C([H])([H])C([H])([H])C([H])(n2nc(-c3c([H])c([H])c(Oc4c([H])c([H])c(F)c([H])c4F)c([H])c3[H])c(C(=O)N([H])[H])c2N([H])[H])C1([H])[H])c1nc(Oc2c([H])c([H])c3c(c2[H])C([H])([H])N(C(=O)C([H])(N([H])C(=O)C([H])(N([H])C([H])([H])[H])C([H])([H])[H])C(C([H])([H])[H])(C([H])([H])[H])C([H])([H])[H])C([H])(C(=O)N([H])C2([H])c4c([H])c([H])c([H])c([H])c4C([H])([H])C([H])([H])C2([H])[H])C3([H])[H])sc1[H]

>  <smiles>  (26) 
[H]C(=NC([H])([H])C([H])([H])C([H])([H])N([H])C(=O)N1C([H])([H])C([H])([H])C([H])([H])C([H])(n2nc(-c3c([H])c([H])c(Oc4c([H])c([H])c(F)c([H])c4F)c([H])c3[H])c(C(=O)N([H])[H])c2N([H])[H])C1([H])[H])c1nc(Oc2c([H])c([H])c3c(c2[H])C([H])([H])N(C(=O)C([H])(N([H])C(=O)C([H])(N([H])C([H])([H])[H])C([H])([H])[H])C(C([H])([H])[H])(C([H])([H])[H])C([H])([H])[H])C([H])(C(=O)N([H])C2([H])c4c([H])c([H])c([H])c([H])c4C([H])([H])C([H])([H])C2([H])[H])C3([H])[H])sc1[H]

$$$$
26:0:0
     RDKit          3D

 92100  0  0  1  0  0  0  0  0999 V2000
  -29.7180  -21.9200   20.4780 C   0  0  0  0  0  2  0  0  0  0  0  0
  -29.0000  -23.0480   21.1250 N   0  0  0  0  0  4  0  0  0  0  0  0
  -29.1020  -22.9780   22.1270 H   0  0  0  0  0  0  0  0  0  0  0  0
  -28.0200  -22.9250   20.9210 H   0  0  0  0  0  0  0  0  0  0  0  0
  -29.3860  -24.4240   20.6930 C   0  0  0  0  0  2  0  0  0  0  0  0
  -28.1300  -25.2820   20.4400 C   0  0  0  0  0  2  0  0  0  0  0  0
  -28.3660  -26.6870   20.2230 O   0  0  0  0  0  0  0  0  0  0  0  0
  -24.5730  -31.8950   23.2710 C   0  0  0  0  0  0  0  0  0  0  0  0
  -27.2140  -27.4510   20.1810 C   0  0  0  0  0  0  0  0  0  0  0  0
  -23.3700  -30.4970   21.6270 C   0  0  0  0  0  3  0  0  0  0  0  0
  -24.8250  -28.9750   20.1920 C   0  0  0  0  0  0  0  0  0  0  0  0
  -25.9000  -30.8490   21.4410 C   0  0  0  0  0  2  0  0  0  0  0  0
  -25.9850  -29.4860   20.7890 C   0  0  0  0  0  0  0  0  0  0  0  0
  -27.1840  -28.7340   20.7770 C   0  0  0  0  0  3  0  0  0  0  0  0
  -26.0340  -26.9670   19.5630 C   0  0  0  0  0  3  0  0  0  0  0  0
  -24.8470  -27.7170   19.5720 C   0  0  0  0  0  3  0  0  0  0  0  0
  -23.5810  -29.8290   20.2430 C   0  0  0  0  0  2  0  0  0  0  0  0
  -24.6320  -31.0910   22.1740 N   0  0  0  0  0  0  0  0  0  0  0  0
  -23.4860  -32.1910   23.7870 O   0  0  0  0  0  0  0  0  0  0  0  0
  -22.7170  -29.4680   22.5770 C   0  0  0  0  0  0  0  0  0  0  0  0
  -21.3940  -29.2810   22.4400 N   0  0  0  0  0  0  0  0  0  0  0  0
  -23.3980  -28.8420   23.3940 O   0  0  0  0  0  0  0  0  0  0  0  0
  -20.9050  -29.8380   21.7520 H   0  0  0  0  0  0  0  0  0  0  0  0
  -18.0170  -28.0870   22.9170 C   0  0  0  0  0  0  0  0  0  0  0  0
  -20.5740  -28.3380   23.2010 C   0  0  0  0  0  3  0  0  0  0  0  0
  -20.6770  -26.9120   22.6140 C   0  0  0  0  0  2  0  0  0  0  0  0
  -19.5780  -26.5990   21.5930 C   0  0  0  0  0  2  0  0  0  0  0  0
  -18.1950  -26.7420   22.2330 C   0  0  0  0  0  2  0  0  0  0  0  0
  -19.1360  -28.8440   23.3570 C   0  0  0  0  0  0  0  0  0  0  0  0
  -18.9180  -30.1030   23.9570 C   0  0  0  0  0  3  0  0  0  0  0  0
  -17.6140  -30.6070   24.1190 C   0  0  0  0  0  3  0  0  0  0  0  0
  -16.5090  -29.8470   23.6960 C   0  0  0  0  0  3  0  0  0  0  0  0
  -16.7120  -28.5890   23.1010 C   0  0  0  0  0  3  0  0  0  0  0  0
  -25.8600  -32.5090   23.9060 C   0  0  0  0  0  3  0  0  0  0  0  0
  -25.5660  -33.9110   24.2270 N   0  0  0  0  0  0  0  0  0  0  0  0
  -25.9030  -34.9540   23.4580 C   0  0  0  0  0  0  0  0  0  0  0  0
  -26.5730  -34.8370   22.4270 O   0  0  0  0  0  0  0  0  0  0  0  0
  -24.9700  -34.0770   25.0260 H   0  0  0  0  0  0  0  0  0  0  0  0
  -24.1850  -36.7510   23.0860 C   0  0  0  0  0  1  0  0  0  0  0  0
  -25.4230  -36.3480   23.9020 C   0  0  0  0  0  3  0  0  0  0  0  0
  -27.5580  -37.2280   24.7320 C   0  0  0  0  0  1  0  0  0  0  0  0
  -26.4610  -37.3940   23.7820 N   0  0  0  0  0  0  0  0  0  0  0  0
  -26.0600  -38.3180   23.9210 H   0  0  0  0  0  0  0  0  0  0  0  0
  -26.3610  -31.7360   25.1870 C   0  0  1  0  0  0  0  0  0  0  0  0
  -25.2560  -31.5060   26.2430 C   0  0  0  0  0  1  0  0  0  0  0  0
  -26.9400  -30.3550   24.8010 C   0  0  0  0  0  1  0  0  0  0  0  0
  -27.5120  -32.5240   25.8580 C   0  0  0  0  0  1  0  0  0  0  0  0
  -29.0970  -20.5380   20.8410 C   0  0  0  0  0  2  0  0  0  0  0  0
  -30.8620  -18.2660   18.2740 C   0  0  0  0  0  3  0  0  0  0  0  0
  -30.3510  -19.4090   18.9110 C   0  0  0  0  0  3  0  0  0  0  0  0
  -30.7400  -17.0070   18.8800 C   0  0  0  0  0  3  0  0  0  0  0  0
  -29.5870  -18.0230   20.7700 C   0  0  0  0  0  3  0  0  0  0  0  0
  -29.7100  -19.3030   20.1660 C   0  0  0  0  0  0  0  0  0  0  0  0
  -30.1140  -16.8630   20.1440 C   0  0  0  0  0  0  0  0  0  0  0  0
  -30.6880  -14.4790   20.4690 C   0  0  0  0  0  0  0  0  0  0  0  0
  -30.3700  -12.3130   19.3720 C   0  0  0  0  0  2  0  0  0  0  0  0
  -29.4570  -12.5480   18.1510 C   0  0  0  0  0  2  0  0  0  0  0  0
  -27.9740  -12.4350   18.5530 C   0  0  0  0  0  2  0  0  0  0  0  0
  -27.6260  -13.2650   19.8190 C   0  0  0  0  0  3  0  0  0  0  0  0
  -28.6660  -13.0420   20.9430 C   0  0  0  0  0  2  0  0  0  0  0  0
  -30.0020  -13.3090   20.3880 N   0  0  0  0  0  0  0  0  0  0  0  0
  -31.8650  -14.5850   20.1160 O   0  0  0  0  0  0  0  0  0  0  0  0
  -29.9540  -15.5730   20.7560 N   0  0  0  0  0  0  0  0  0  0  0  0
  -29.0860  -15.4130   21.2440 H   0  0  0  0  0  0  0  0  0  0  0  0
  -25.2180  -13.8770   20.4880 C   0  0  0  0  0  0  0  0  0  0  0  0
  -24.1440  -13.1070   20.8470 C   0  0  0  0  0  0  0  0  0  0  0  0
  -24.6060  -11.7550   20.8330 C   0  0  0  0  0  0  0  0  0  0  0  0
  -26.2660  -12.9930   20.2790 N   0  0  0  0  0  0  0  0  0  0  0  0
  -25.9010  -11.7130   20.5440 N   0  0  0  0  0  0  0  0  0  0  0  0
  -23.8760  -10.4940   21.0210 C   0  0  0  0  0  0  0  0  0  0  0  0
  -24.2910   -9.5330   21.9690 C   0  0  0  0  0  3  0  0  0  0  0  0
  -23.5610   -8.3390   22.1450 C   0  0  0  0  0  3  0  0  0  0  0  0
  -22.4010   -8.0950   21.3710 C   0  0  0  0  0  0  0  0  0  0  0  0
  -22.0060   -9.0450   20.4110 C   0  0  0  0  0  3  0  0  0  0  0  0
  -22.7380  -10.2300   20.2340 C   0  0  0  0  0  3  0  0  0  0  0  0
  -21.6410   -6.9530   21.4560 O   0  0  0  0  0  0  0  0  0  0  0  0
  -21.5680   -6.2210   22.6140 C   0  0  0  0  0  0  0  0  0  0  0  0
  -21.1030   -6.7850   23.8230 C   0  0  0  0  0  3  0  0  0  0  0  0
  -20.9790   -5.9780   24.9720 C   0  0  0  0  0  3  0  0  0  0  0  0
  -21.3080   -4.6120   24.9130 C   0  0  0  0  0  0  0  0  0  0  0  0
  -21.7670   -4.0480   23.7090 C   0  0  0  0  0  3  0  0  0  0  0  0
  -21.8940   -4.8510   22.5620 C   0  0  0  0  0  0  0  0  0  0  0  0
  -22.3160   -4.2990   21.4000 F   0  0  0  0  0  0  0  0  0  0  0  0
  -21.1820   -3.8350   26.0150 F   0  0  0  0  0  0  0  0  0  0  0  0
  -22.7430  -13.5870   21.0930 C   0  0  0  0  0  0  0  0  0  0  0  0
  -22.0000  -12.8920   21.9470 N   0  0  0  0  0  0  0  0  0  0  0  0
  -22.3160  -14.6120   20.5640 O   0  0  0  0  0  0  0  0  0  0  0  0
  -22.3570  -12.0630   22.3970 H   0  0  0  0  0  0  0  0  0  0  0  0
  -21.0590  -13.1950   22.1570 H   0  0  0  0  0  0  0  0  0  0  0  0
  -25.3880  -15.2460   20.3030 N   0  0  0  0  0  0  0  0  0  0  0  0
  -24.6210  -15.9020   20.3950 H   0  0  0  0  0  0  0  0  0  0  0  0
  -26.2420  -15.6780   19.9730 H   0  0  0  0  0  0  0  0  0  0  0  0
  1 48  1  0
  1  2  1  0
  2  3  1  0
  4  2  1  0
  5  2  1  0
  6  5  1  0
  7  6  1  0
  8 19  2  0
  9  7  1  0
  9 14  1  0
 10 18  1  0
 10 20  1  0
 11 17  1  0
 11 13  1  0
 12 18  1  0
 13 12  1  0
 14 13  2  0
 15 16  1  0
 15  9  2  0
 16 11  2  0
 17 10  1  0
 18  8  1  0
 20 22  2  0
 21 20  1  0
 23 21  1  0
 24 33  2  0
 24 29  1  0
 25 21  1  0
 25 29  1  0
 26 25  1  0
 27 28  1  0
 27 26  1  0
 28 24  1  0
 29 30  2  0
 30 31  1  0
 32 31  2  0
 33 32  1  0
 34  8  1  0
 34 35  1  0
 34 44  1  0
 35 38  1  0
 36 40  1  0
 36 35  1  0
 37 36  2  0
 40 39  1  0
 42 40  1  0
 42 43  1  0
 42 41  1  0
 44 47  1  1
 44 45  1  0
 46 44  1  0
 49 51  2  0
 49 50  1  0
 50 53  2  0
 51 54  1  0
 53 52  1  0
 53 48  1  0
 54 63  1  0
 54 52  2  0
 55 63  1  0
 56 61  1  0
 57 58  1  0
 57 56  1  0
 59 58  1  0
 59 68  1  0
 59 60  1  0
 61 55  1  0
 61 60  1  0
 62 55  2  0
 63 64  1  0
 65 66  2  0
 66 85  1  0
 67 66  1  0
 67 70  1  0
 68 65  1  0
 68 69  1  0
 69 67  2  0
 70 71  1  0
 71 72  2  0
 73 76  1  0
 73 72  1  0
 74 73  2  0
 75 74  1  0
 75 70  2  0
 76 77  1  0
 77 78  1  0
 78 79  2  0
 80 79  1  0
 80 84  1  0
 81 80  2  0
 82 77  2  0
 82 81  1  0
 83 82  1  0
 85 86  1  0
 86 89  1  0
 86 88  1  0
 87 85  2  0
 90 91  1  0
 90 65  1  0
 92 90  1  0
M  ISO  4   6 101   7 101  55 100  63 100
M  END
>  <TORSDO>  (27) 
F 21

>  <SCORE>  (27) 
-13.499

>  <name>  (27) 
26

>  <ligand_id>  (27) 
26

>  <original_smiles>  (27) 
[H]c1c([H])c([H])c2c(c1[H])C([H])([H])C([H])([H])C([H])([H])C2([H])N([H])C(=O)C1([H])N(C(=O)C([H])(N([H])C(=O)C([H])(N([H])C([H])([H])[H])C([H])([H])[H])C(C([H])([H])[H])(C([H])([H])[H])C([H])([H])[H])C([H])([H])c2c([H])c(OC([H])([H])C([H])([H])[N+]([H])([H])C([H])([H])C([H])([H])c3c([H])c([H])c([H])c(N([H])C(=O)N4C([H])([H])C([H])([H])C([H])([H])C([H])(n5nc(-c6c([H])c([H])c(Oc7c([H])c([H])c(F)c([H])c7F)c([H])c6[H])c(C(=O)N([H])[H])c5N([H])[H])C4([H])[H])c3[H])c([H])c([H])c2C1([H])[H]

>  <smiles>  (27) 
[H]c1c([H])c([H])c2c(c1[H])C([H])([H])C([H])([H])C([H])([H])C2([H])N([H])C(=O)C1([H])N(C(=O)C([H])(N([H])C(=O)C([H])(N([H])C([H])([H])[H])C([H])([H])[H])C(C([H])([H])[H])(C([H])([H])[H])C([H])([H])[H])C([H])([H])c2c([H])c(OC([H])([H])C([H])([H])[N+]([H])([H])C([H])([H])C([H])([H])c3c([H])c([H])c([H])c(N([H])C(=O)N4C([H])([H])C([H])([H])C([H])([H])C([H])(n5nc(-c6c([H])c([H])c(Oc7c([H])c([H])c(F)c([H])c7F)c([H])c6[H])c(C(=O)N([H])[H])c5N([H])[H])C4([H])[H])c3[H])c([H])c([H])c2C1([H])[H]

$$$$
27:0:0
     RDKit          3D

 95105  0  0  1  0  0  0  0  0999 V2000
  -32.3450  -19.3220   19.9890 C   0  0  0  0  0  3  0  0  0  0  0  0
  -32.1580  -18.1220   20.6990 C   0  0  0  0  0  3  0  0  0  0  0  0
  -29.7830  -18.6130   20.8910 C   0  0  0  0  0  3  0  0  0  0  0  0
  -31.2570  -20.1830   19.7300 C   0  0  0  0  0  0  0  0  0  0  0  0
  -29.9630  -19.8260   20.1770 C   0  0  0  0  0  0  0  0  0  0  0  0
  -30.8800  -17.7630   21.1680 C   0  0  0  0  0  0  0  0  0  0  0  0
  -31.5010  -21.4760   18.9680 C   0  0  0  0  0  2  0  0  0  0  0  0
  -28.7610  -20.7180   19.8670 C   0  0  0  0  0  2  0  0  0  0  0  0
  -31.1980  -22.7430   19.7930 C   0  0  0  0  0  2  0  0  0  0  0  0
  -28.8080  -22.1440   20.4750 C   0  0  0  0  0  2  0  0  0  0  0  0
  -28.3080  -24.7970   18.4710 C   0  0  0  0  0  2  0  0  0  0  0  0
  -29.2430  -23.5810   18.3630 C   0  0  0  0  0  2  0  0  0  0  0  0
  -29.5840  -24.5720   20.5110 C   0  0  0  0  0  2  0  0  0  0  0  0
  -28.3390  -25.2650   19.9340 C   0  0  0  0  0  3  0  0  0  0  0  0
  -29.7200  -23.2060   19.7860 C   0  0  2  0  0  0  0  0  0  0  0  0
  -28.4060  -26.6960   20.0890 O   0  0  0  0  0  0  0  0  0  0  0  0
  -24.6160  -31.8790   23.1990 C   0  0  0  0  0  0  0  0  0  0  0  0
  -27.2270  -27.4240   20.0850 C   0  0  0  0  0  0  0  0  0  0  0  0
  -23.4030  -30.4950   21.5500 C   0  0  0  0  0  3  0  0  0  0  0  0
  -24.8440  -28.9610   20.1160 C   0  0  0  0  0  0  0  0  0  0  0  0
  -25.9350  -30.8300   21.3630 C   0  0  0  0  0  2  0  0  0  0  0  0
  -26.0090  -29.4660   20.7060 C   0  0  0  0  0  0  0  0  0  0  0  0
  -27.2030  -28.7080   20.6820 C   0  0  0  0  0  3  0  0  0  0  0  0
  -26.0340  -26.9350   19.5030 C   0  0  0  0  0  3  0  0  0  0  0  0
  -24.8520  -27.6950   19.5130 C   0  0  0  0  0  3  0  0  0  0  0  0
  -23.6080  -29.8290   20.1660 C   0  0  0  0  0  2  0  0  0  0  0  0
  -24.6710  -31.0780   22.0980 N   0  0  0  0  0  0  0  0  0  0  0  0
  -23.5310  -32.1780   23.7160 O   0  0  0  0  0  0  0  0  0  0  0  0
  -22.7410  -29.4700   22.5000 C   0  0  0  0  0  0  0  0  0  0  0  0
  -21.4140  -29.3050   22.3740 N   0  0  0  0  0  0  0  0  0  0  0  0
  -23.4190  -28.8250   23.3050 O   0  0  0  0  0  0  0  0  0  0  0  0
  -20.9300  -29.8770   21.6960 H   0  0  0  0  0  0  0  0  0  0  0  0
  -18.0270  -28.1390   22.8500 C   0  0  0  0  0  0  0  0  0  0  0  0
  -20.5860  -28.3680   23.1320 C   0  0  0  0  0  3  0  0  0  0  0  0
  -20.6770  -26.9410   22.5430 C   0  0  0  0  0  2  0  0  0  0  0  0
  -19.5750  -26.6390   21.5220 C   0  0  0  0  0  2  0  0  0  0  0  0
  -18.1920  -26.7930   22.1620 C   0  0  0  0  0  2  0  0  0  0  0  0
  -19.1520  -28.8840   23.2910 C   0  0  0  0  0  0  0  0  0  0  0  0
  -18.9450  -30.1450   23.8930 C   0  0  0  0  0  3  0  0  0  0  0  0
  -17.6450  -30.6590   24.0570 C   0  0  0  0  0  3  0  0  0  0  0  0
  -16.5340  -29.9090   23.6330 C   0  0  0  0  0  3  0  0  0  0  0  0
  -16.7260  -28.6510   23.0360 C   0  0  0  0  0  3  0  0  0  0  0  0
  -25.9060  -32.4850   23.8360 C   0  0  0  0  0  3  0  0  0  0  0  0
  -25.5940  -33.8640   24.2320 N   0  0  0  0  0  0  0  0  0  0  0  0
  -25.9050  -34.9500   23.5120 C   0  0  0  0  0  0  0  0  0  0  0  0
  -26.5600  -34.8950   22.4670 O   0  0  0  0  0  0  0  0  0  0  0  0
  -25.0120  -33.9800   25.0490 H   0  0  0  0  0  0  0  0  0  0  0  0
  -24.1490  -36.7320   23.2640 C   0  0  0  0  0  1  0  0  0  0  0  0
  -25.4120  -36.3120   24.0340 C   0  0  0  0  0  3  0  0  0  0  0  0
  -27.5590  -37.1820   24.8460 C   0  0  0  0  0  1  0  0  0  0  0  0
  -26.4300  -37.3810   23.9410 N   0  0  0  0  0  0  0  0  0  0  0  0
  -26.0180  -38.2880   24.1440 H   0  0  0  0  0  0  0  0  0  0  0  0
  -26.4440  -31.6600   25.0690 C   0  0  1  0  0  0  0  0  0  0  0  0
  -25.3670  -31.3710   26.1400 C   0  0  0  0  0  1  0  0  0  0  0  0
  -27.0280  -30.3050   24.6070 C   0  0  0  0  0  1  0  0  0  0  0  0
  -27.6010  -32.4310   25.7480 C   0  0  0  0  0  1  0  0  0  0  0  0
  -30.7290  -16.5150   22.0380 C   0  0  0  0  0  2  0  0  0  0  0  0
  -30.7290  -14.4350   20.6340 C   0  0  0  0  0  0  0  0  0  0  0  0
  -30.4220  -12.3140   19.3980 C   0  0  0  0  0  2  0  0  0  0  0  0
  -29.4850  -12.5170   18.1920 C   0  0  0  0  0  2  0  0  0  0  0  0
  -28.0090  -12.3730   18.6100 C   0  0  0  0  0  2  0  0  0  0  0  0
  -27.6610  -13.2050   19.8730 C   0  0  0  0  0  3  0  0  0  0  0  0
  -28.7030  -12.9670   20.9860 C   0  0  0  0  0  2  0  0  0  0  0  0
  -30.0340  -13.2820   20.4360 N   0  0  0  0  0  0  0  0  0  0  0  0
  -31.8300  -14.6550   20.1220 O   0  0  0  0  0  0  0  0  0  0  0  0
  -30.1170  -15.3420   21.4110 N   0  0  0  0  0  0  0  0  0  0  0  0
  -29.1970  -15.0910   21.7370 H   0  0  0  0  0  0  0  0  0  0  0  0
  -25.2590  -13.8160   20.5670 C   0  0  0  0  0  0  0  0  0  0  0  0
  -24.1840  -13.0440   20.9170 C   0  0  0  0  0  0  0  0  0  0  0  0
  -24.6390  -11.6910   20.8730 C   0  0  0  0  0  0  0  0  0  0  0  0
  -26.3020  -12.9320   20.3360 N   0  0  0  0  0  0  0  0  0  0  0  0
  -25.9310  -11.6490   20.5760 N   0  0  0  0  0  0  0  0  0  0  0  0
  -23.9060  -10.4290   21.0410 C   0  0  0  0  0  0  0  0  0  0  0  0
  -24.3610   -9.4210   21.9190 C   0  0  0  0  0  3  0  0  0  0  0  0
  -23.6290   -8.2240   22.0760 C   0  0  0  0  0  3  0  0  0  0  0  0
  -22.4270   -8.0280   21.3540 C   0  0  0  0  0  0  0  0  0  0  0  0
  -21.9910   -9.0250   20.4640 C   0  0  0  0  0  3  0  0  0  0  0  0
  -22.7240  -10.2130   20.3050 C   0  0  0  0  0  3  0  0  0  0  0  0
  -21.6640   -6.8880   21.4240 O   0  0  0  0  0  0  0  0  0  0  0  0
  -21.6850   -6.0740   22.5280 C   0  0  0  0  0  0  0  0  0  0  0  0
  -21.4010   -6.5640   23.8210 C   0  0  0  0  0  3  0  0  0  0  0  0
  -21.3660   -5.6790   24.9170 C   0  0  0  0  0  3  0  0  0  0  0  0
  -21.6050   -4.3060   24.7230 C   0  0  0  0  0  0  0  0  0  0  0  0
  -21.8820   -3.8150   23.4350 C   0  0  0  0  0  3  0  0  0  0  0  0
  -21.9190   -4.6970   22.3400 C   0  0  0  0  0  0  0  0  0  0  0  0
  -22.1660   -4.2150   21.0980 F   0  0  0  0  0  0  0  0  0  0  0  0
  -21.5630   -3.4540   25.7740 F   0  0  0  0  0  0  0  0  0  0  0  0
  -22.7860  -13.5240   21.1840 C   0  0  0  0  0  0  0  0  0  0  0  0
  -22.0500  -12.8220   22.0390 N   0  0  0  0  0  0  0  0  0  0  0  0
  -22.3550  -14.5550   20.6700 O   0  0  0  0  0  0  0  0  0  0  0  0
  -22.4110  -11.9870   22.4760 H   0  0  0  0  0  0  0  0  0  0  0  0
  -21.1120  -13.1250   22.2610 H   0  0  0  0  0  0  0  0  0  0  0  0
  -25.4320  -15.1880   20.4080 N   0  0  0  0  0  0  0  0  0  0  0  0
  -24.6690  -15.8470   20.5170 H   0  0  0  0  0  0  0  0  0  0  0  0
  -26.2900  -15.6250   20.0960 H   0  0  0  0  0  0  0  0  0  0  0  0
  1  2  1  0
  2  6  2  0
  3  6  1  0
  4  1  2  0
  4  5  1  0
  5  3  2  0
  6 57  1  0
  7  4  1  0
  7  9  1  0
  8  5  1  0
  8 10  1  0
 11 14  1  0
 12 11  1  0
 14 16  1  0
 14 13  1  0
 15 12  1  6
 15  9  1  0
 15 10  1  0
 15 13  1  0
 17 28  2  0
 18 16  1  0
 18 23  1  0
 19 27  1  0
 19 29  1  0
 20 26  1  0
 20 22  1  0
 21 27  1  0
 22 21  1  0
 23 22  2  0
 24 25  1  0
 24 18  2  0
 25 20  2  0
 26 19  1  0
 27 17  1  0
 29 31  2  0
 30 29  1  0
 32 30  1  0
 33 42  2  0
 33 38  1  0
 34 30  1  0
 34 38  1  0
 35 34  1  0
 36 37  1  0
 36 35  1  0
 37 33  1  0
 38 39  2  0
 39 40  1  0
 41 40  2  0
 42 41  1  0
 43 17  1  0
 43 44  1  0
 43 53  1  0
 44 47  1  0
 45 49  1  0
 45 44  1  0
 46 45  2  0
 49 48  1  0
 51 49  1  0
 51 52  1  0
 51 50  1  0
 53 56  1  1
 53 54  1  0
 55 53  1  0
 58 66  1  0
 59 64  1  0
 60 61  1  0
 60 59  1  0
 62 61  1  0
 62 71  1  0
 62 63  1  0
 64 58  1  0
 64 63  1  0
 65 58  2  0
 66 67  1  0
 66 57  1  0
 68 69  2  0
 69 88  1  0
 70 69  1  0
 70 73  1  0
 71 68  1  0
 71 72  1  0
 72 70  2  0
 73 74  1  0
 74 75  2  0
 76 79  1  0
 76 75  1  0
 77 76  2  0
 78 77  1  0
 78 73  2  0
 79 80  1  0
 80 81  1  0
 81 82  2  0
 83 82  1  0
 83 87  1  0
 84 83  2  0
 85 80  2  0
 85 84  1  0
 86 85  1  0
 88 89  1  0
 89 92  1  0
 89 91  1  0
 90 88  2  0
 93 94  1  0
 93 68  1  0
 95 93  1  0
M  ISO  4  14 101  16 101  58 100  66 100
M  END
>  <TORSDO>  (28) 
F 17

>  <SCORE>  (28) 
-15.298

>  <name>  (28) 
27

>  <ligand_id>  (28) 
27

>  <original_smiles>  (28) 
[H]c1c([H])c([H])c2c(c1[H])C([H])([H])C([H])([H])C([H])([H])C2([H])N([H])C(=O)C1([H])N(C(=O)C([H])(N([H])C(=O)C([H])(N([H])C([H])([H])[H])C([H])([H])[H])C(C([H])([H])[H])(C([H])([H])[H])C([H])([H])[H])C([H])([H])c2c([H])c(OC3([H])C([H])([H])C([H])([H])C4(C([H])([H])C([H])([H])c5c([H])c([H])c(C([H])([H])N([H])C(=O)N6C([H])([H])C([H])([H])C([H])([H])C([H])(n7nc(-c8c([H])c([H])c(Oc9c([H])c([H])c(F)c([H])c9F)c([H])c8[H])c(C(=O)N([H])[H])c7N([H])[H])C6([H])[H])c([H])c5C([H])([H])C4([H])[H])C3([H])[H])c([H])c([H])c2C1([H])[H]

>  <smiles>  (28) 
[H]c1c([H])c([H])c2c(c1[H])C([H])([H])C([H])([H])C([H])([H])C2([H])N([H])C(=O)C1([H])N(C(=O)C([H])(N([H])C(=O)C([H])(N([H])C([H])([H])[H])C([H])([H])[H])C(C([H])([H])[H])(C([H])([H])[H])C([H])([H])[H])C([H])([H])c2c([H])c(OC3([H])C([H])([H])C([H])([H])C4(C([H])([H])C([H])([H])c5c([H])c([H])c(C([H])([H])N([H])C(=O)N6C([H])([H])C([H])([H])C([H])([H])C([H])(n7nc(-c8c([H])c([H])c(Oc9c([H])c([H])c(F)c([H])c9F)c([H])c8[H])c(C(=O)N([H])[H])c7N([H])[H])C6([H])[H])c([H])c5C([H])([H])C4([H])[H])C3([H])[H])c([H])c([H])c2C1([H])[H]

$$$$
28:0:0
     RDKit          3D

 94103  0  0  1  0  0  0  0  0999 V2000
  -29.5150  -20.8730   18.0220 C   0  0  0  0  0  3  0  0  0  0  0  0
  -29.9760  -19.8020   18.8080 C   0  0  0  0  0  3  0  0  0  0  0  0
  -30.6950  -21.3810   20.5170 C   0  0  0  0  0  3  0  0  0  0  0  0
  -30.2450  -22.4630   19.7310 C   0  0  0  0  0  0  0  0  0  0  0  0
  -29.6380  -22.2030   18.4750 C   0  0  0  0  0  0  0  0  0  0  0  0
  -30.5560  -20.0530   20.0720 C   0  0  0  0  0  0  0  0  0  0  0  0
  -30.4330  -23.8500   20.2460 C   0  0  0  0  0  0  0  0  0  0  0  0
  -29.0970  -23.3250   17.6070 C   0  0  0  0  0  2  0  0  0  0  0  0
  -29.7280  -24.6870   17.9330 C   0  0  0  0  0  2  0  0  0  0  0  0
  -29.7950  -24.9890   19.4470 C   0  0  0  0  0  3  0  0  0  0  0  0
  -31.0450  -24.1150   21.2860 O   0  0  0  0  0  0  0  0  0  0  0  0
  -31.0310  -18.9360   20.9890 C   0  0  0  0  0  2  0  0  0  0  0  0
  -30.4740  -17.5420   20.6660 C   0  0  0  0  0  2  0  0  0  0  0  0
  -30.7420  -16.5330   21.7960 C   0  0  0  0  0  2  0  0  0  0  0  0
  -30.7220  -14.3600   20.5930 C   0  0  0  0  0  0  0  0  0  0  0  0
  -30.3530  -12.2920   19.3080 C   0  0  0  0  0  2  0  0  0  0  0  0
  -29.4210  -12.5650   18.1150 C   0  0  0  0  0  2  0  0  0  0  0  0
  -27.9450  -12.4420   18.5400 C   0  0  0  0  0  2  0  0  0  0  0  0
  -27.6210  -13.2330   19.8370 C   0  0  0  0  0  3  0  0  0  0  0  0
  -28.6660  -12.9390   20.9350 C   0  0  0  0  0  2  0  0  0  0  0  0
  -30.0040  -13.2290   20.3860 N   0  0  0  0  0  0  0  0  0  0  0  0
  -31.7680  -14.6240   19.9920 O   0  0  0  0  0  0  0  0  0  0  0  0
  -30.2030  -15.2140   21.4840 N   0  0  0  0  0  0  0  0  0  0  0  0
  -29.3520  -14.9330   21.9520 H   0  0  0  0  0  0  0  0  0  0  0  0
  -25.2120  -13.8390   20.5120 C   0  0  0  0  0  0  0  0  0  0  0  0
  -24.1410  -13.0680   20.8740 C   0  0  0  0  0  0  0  0  0  0  0  0
  -24.6040  -11.7160   20.8530 C   0  0  0  0  0  0  0  0  0  0  0  0
  -26.2620  -12.9590   20.2980 N   0  0  0  0  0  0  0  0  0  0  0  0
  -25.8950  -11.6760   20.5540 N   0  0  0  0  0  0  0  0  0  0  0  0
  -23.8770  -10.4560   21.0470 C   0  0  0  0  0  0  0  0  0  0  0  0
  -24.3120   -9.4880   21.9810 C   0  0  0  0  0  3  0  0  0  0  0  0
  -23.5860   -8.2910   22.1620 C   0  0  0  0  0  3  0  0  0  0  0  0
  -22.4110   -8.0520   21.4100 C   0  0  0  0  0  0  0  0  0  0  0  0
  -21.9940   -9.0080   20.4660 C   0  0  0  0  0  3  0  0  0  0  0  0
  -22.7200  -10.1980   20.2840 C   0  0  0  0  0  3  0  0  0  0  0  0
  -21.6560   -6.9070   21.4980 O   0  0  0  0  0  0  0  0  0  0  0  0
  -21.6200   -6.1570   22.6460 C   0  0  0  0  0  0  0  0  0  0  0  0
  -21.2140   -6.7100   23.8810 C   0  0  0  0  0  3  0  0  0  0  0  0
  -21.1230   -5.8880   25.0230 C   0  0  0  0  0  3  0  0  0  0  0  0
  -21.4270   -4.5170   24.9300 C   0  0  0  0  0  0  0  0  0  0  0  0
  -21.8280   -3.9650   23.7000 C   0  0  0  0  0  3  0  0  0  0  0  0
  -21.9200   -4.7830   22.5610 C   0  0  0  0  0  0  0  0  0  0  0  0
  -22.2850   -4.2440   21.3720 F   0  0  0  0  0  0  0  0  0  0  0  0
  -21.3350   -3.7260   26.0250 F   0  0  0  0  0  0  0  0  0  0  0  0
  -22.7430  -13.5460   21.1370 C   0  0  0  0  0  0  0  0  0  0  0  0
  -22.0140  -12.8500   22.0030 N   0  0  0  0  0  0  0  0  0  0  0  0
  -22.3060  -14.5700   20.6130 O   0  0  0  0  0  0  0  0  0  0  0  0
  -22.3810  -12.0220   22.4490 H   0  0  0  0  0  0  0  0  0  0  0  0
  -21.0760  -13.1530   22.2280 H   0  0  0  0  0  0  0  0  0  0  0  0
  -25.3720  -15.2100   20.3280 N   0  0  0  0  0  0  0  0  0  0  0  0
  -24.6010  -15.8610   20.4330 H   0  0  0  0  0  0  0  0  0  0  0  0
  -26.2250  -15.6550   20.0120 H   0  0  0  0  0  0  0  0  0  0  0  0
  -28.4350  -25.3910   20.0480 C   0  0  0  0  0  2  0  0  0  0  0  0
  -28.3890  -26.8140   20.0680 O   0  0  0  0  0  0  0  0  0  0  0  0
  -24.5660  -31.8900   23.2370 C   0  0  0  0  0  0  0  0  0  0  0  0
  -27.1750  -27.4560   20.1250 C   0  0  0  0  0  0  0  0  0  0  0  0
  -23.3410  -30.4850   21.6120 C   0  0  0  0  0  3  0  0  0  0  0  0
  -24.7740  -28.9430   20.1810 C   0  0  0  0  0  0  0  0  0  0  0  0
  -25.8650  -30.8410   21.3910 C   0  0  0  0  0  2  0  0  0  0  0  0
  -25.9380  -29.4710   20.7530 C   0  0  0  0  0  0  0  0  0  0  0  0
  -27.1410  -28.7360   20.7170 C   0  0  0  0  0  3  0  0  0  0  0  0
  -25.9880  -26.9280   19.5650 C   0  0  0  0  0  3  0  0  0  0  0  0
  -24.7930  -27.6690   19.5900 C   0  0  0  0  0  3  0  0  0  0  0  0
  -23.5340  -29.8020   20.2330 C   0  0  0  0  0  2  0  0  0  0  0  0
  -24.6100  -31.0830   22.1410 N   0  0  0  0  0  0  0  0  0  0  0  0
  -23.4850  -32.1860   23.7650 O   0  0  0  0  0  0  0  0  0  0  0  0
  -22.7010  -29.4630   22.5780 C   0  0  0  0  0  0  0  0  0  0  0  0
  -21.3770  -29.2780   22.4540 N   0  0  0  0  0  0  0  0  0  0  0  0
  -23.3890  -28.8380   23.3890 O   0  0  0  0  0  0  0  0  0  0  0  0
  -20.8840  -29.8350   21.7700 H   0  0  0  0  0  0  0  0  0  0  0  0
  -18.0030  -28.0860   22.9600 C   0  0  0  0  0  0  0  0  0  0  0  0
  -20.5610  -28.3410   23.2270 C   0  0  0  0  0  3  0  0  0  0  0  0
  -20.6620  -26.9100   22.6500 C   0  0  0  0  0  2  0  0  0  0  0  0
  -19.5560  -26.5870   21.6390 C   0  0  0  0  0  2  0  0  0  0  0  0
  -18.1760  -26.7350   22.2860 C   0  0  0  0  0  2  0  0  0  0  0  0
  -19.1230  -28.8470   23.3860 C   0  0  0  0  0  0  0  0  0  0  0  0
  -18.9070  -30.1120   23.9750 C   0  0  0  0  0  3  0  0  0  0  0  0
  -17.6040  -30.6160   24.1410 C   0  0  0  0  0  3  0  0  0  0  0  0
  -16.4980  -29.8510   23.7310 C   0  0  0  0  0  3  0  0  0  0  0  0
  -16.6990  -28.5880   23.1460 C   0  0  0  0  0  3  0  0  0  0  0  0
  -25.8590  -32.5090   23.8560 C   0  0  0  0  0  3  0  0  0  0  0  0
  -26.3810  -31.7320   25.1270 C   0  0  1  0  0  0  0  0  0  0  0  0
  -25.2930  -31.4960   26.2020 C   0  0  0  0  0  1  0  0  0  0  0  0
  -26.9560  -30.3530   24.7260 C   0  0  0  0  0  1  0  0  0  0  0  0
  -27.5400  -32.5200   25.7830 C   0  0  0  0  0  1  0  0  0  0  0  0
  -25.5620  -33.9070   24.1880 N   0  0  0  0  0  0  0  0  0  0  0  0
  -25.8980  -34.9560   23.4250 C   0  0  0  0  0  0  0  0  0  0  0  0
  -26.5650  -34.8470   22.3930 O   0  0  0  0  0  0  0  0  0  0  0  0
  -24.9720  -34.0660   24.9910 H   0  0  0  0  0  0  0  0  0  0  0  0
  -24.1790  -36.7550   23.0660 C   0  0  0  0  0  1  0  0  0  0  0  0
  -25.4160  -36.3460   23.8800 C   0  0  0  0  0  3  0  0  0  0  0  0
  -27.5560  -37.2160   24.7150 C   0  0  0  0  0  1  0  0  0  0  0  0
  -26.4550  -37.3930   23.7700 N   0  0  0  0  0  0  0  0  0  0  0  0
  -26.0550  -38.3160   23.9210 H   0  0  0  0  0  0  0  0  0  0  0  0
  1  5  2  0
  1  2  1  0
  2  6  2  0
  4  7  1  0
  4  3  2  0
  5  4  1  0
  6  3  1  0
  6 12  1  0
  7 11  2  0
  8  9  1  0
  8  5  1  0
  9 10  1  0
 10 53  1  0
 10  7  1  0
 13 12  1  0
 13 14  1  0
 15 23  1  0
 16 21  1  0
 17 18  1  0
 17 16  1  0
 19 18  1  0
 19 28  1  0
 19 20  1  0
 21 15  1  0
 21 20  1  0
 22 15  2  0
 23 14  1  0
 23 24  1  0
 25 26  2  0
 26 45  1  0
 27 26  1  0
 27 30  1  0
 28 25  1  0
 28 29  1  0
 29 27  2  0
 30 31  1  0
 31 32  2  0
 33 36  1  0
 33 32  1  0
 34 33  2  0
 35 34  1  0
 35 30  2  0
 36 37  1  0
 37 38  1  0
 38 39  2  0
 40 39  1  0
 40 44  1  0
 41 40  2  0
 42 37  2  0
 42 41  1  0
 43 42  1  0
 45 46  1  0
 46 49  1  0
 46 48  1  0
 47 45  2  0
 50 51  1  0
 50 25  1  0
 52 50  1  0
 53 54  1  0
 54 56  1  0
 55 66  2  0
 56 61  1  0
 57 65  1  0
 57 67  1  0
 58 64  1  0
 58 60  1  0
 59 65  1  0
 60 59  1  0
 61 60  2  0
 62 63  1  0
 62 56  2  0
 63 58  2  0
 64 57  1  0
 65 55  1  0
 67 69  2  0
 68 67  1  0
 70 68  1  0
 71 80  2  0
 71 76  1  0
 72 68  1  0
 72 76  1  0
 73 72  1  0
 74 75  1  0
 74 73  1  0
 75 71  1  0
 76 77  2  0
 77 78  1  0
 79 78  2  0
 80 79  1  0
 81 55  1  0
 81 86  1  0
 81 82  1  0
 82 85  1  1
 82 83  1  0
 84 82  1  0
 86 89  1  0
 87 91  1  0
 87 86  1  0
 88 87  2  0
 91 90  1  0
 93 91  1  0
 93 94  1  0
 93 92  1  0
M  ISO  4  15 100  23 100  53 101  54 101
M  END
>  <TORSDO>  (29) 
F 20

>  <SCORE>  (29) 
-14.024

>  <name>  (29) 
28

>  <ligand_id>  (29) 
28

>  <original_smiles>  (29) 
[H]c1c([H])c([H])c2c(c1[H])C([H])([H])C([H])([H])C([H])([H])C2([H])N([H])C(=O)C1([H])N(C(=O)C([H])(N([H])C(=O)C([H])(N([H])C([H])([H])[H])C([H])([H])[H])C(C([H])([H])[H])(C([H])([H])[H])C([H])([H])[H])C([H])([H])c2c([H])c(OC([H])([H])C3([H])C(=O)c4c([H])c(C([H])([H])C([H])([H])C([H])([H])N([H])C(=O)N5C([H])([H])C([H])([H])C([H])([H])C([H])(n6nc(-c7c([H])c([H])c(Oc8c([H])c([H])c(F)c([H])c8F)c([H])c7[H])c(C(=O)N([H])[H])c6N([H])[H])C5([H])[H])c([H])c([H])c4C([H])([H])C3([H])[H])c([H])c([H])c2C1([H])[H]

>  <smiles>  (29) 
[H]c1c([H])c([H])c2c(c1[H])C([H])([H])C([H])([H])C([H])([H])C2([H])N([H])C(=O)C1([H])N(C(=O)C([H])(N([H])C(=O)C([H])(N([H])C([H])([H])[H])C([H])([H])[H])C(C([H])([H])[H])(C([H])([H])[H])C([H])([H])[H])C([H])([H])c2c([H])c(OC([H])([H])C3([H])C(=O)c4c([H])c(C([H])([H])C([H])([H])C([H])([H])N([H])C(=O)N5C([H])([H])C([H])([H])C([H])([H])C([H])(n6nc(-c7c([H])c([H])c(Oc8c([H])c([H])c(F)c([H])c8F)c([H])c7[H])c(C(=O)N([H])[H])c6N([H])[H])C5([H])[H])c([H])c([H])c4C([H])([H])C3([H])[H])c([H])c([H])c2C1([H])[H]

$$$$
29:0:0
     RDKit          3D

 94102  0  0  1  0  0  0  0  0999 V2000
  -29.6590  -23.6190   21.7950 C   0  0  0  0  0  3  0  0  0  0  0  0
  -30.0710  -22.3020   21.4910 C   0  0  0  0  0  3  0  0  0  0  0  0
  -28.5160  -23.7620   19.6580 C   0  0  0  0  0  3  0  0  0  0  0  0
  -28.8930  -24.3690   20.8770 C   0  0  0  0  0  0  0  0  0  0  0  0
  -29.7210  -21.6970   20.2610 C   0  0  0  0  0  0  0  0  0  0  0  0
  -28.9290  -22.4440   19.3510 C   0  0  0  0  0  0  0  0  0  0  0  0
  -28.5730  -21.9110   18.1580 F   0  0  0  0  0  0  0  0  0  0  0  0
  -31.7870  -20.3540   19.7070 C   0  0  0  0  0  1  0  0  0  0  0  0
  -30.2570  -20.3010   19.8870 C   0  0  0  0  0  3  0  0  0  0  0  0
  -29.8870  -19.2490   20.8720 N   0  0  0  0  0  4  0  0  0  0  0  0
  -30.5150  -19.3130   21.6540 H   0  0  0  0  0  0  0  0  0  0  0  0
  -28.9630  -19.4600   21.2150 H   0  0  0  0  0  0  0  0  0  0  0  0
  -29.8640  -17.8400   20.3750 C   0  0  0  0  0  2  0  0  0  0  0  0
  -30.2310  -16.8200   21.4870 C   0  0  0  0  0  2  0  0  0  0  0  0
  -30.6330  -14.4840   20.5410 C   0  0  0  0  0  0  0  0  0  0  0  0
  -30.3730  -12.3370   19.3380 C   0  0  0  0  0  2  0  0  0  0  0  0
  -29.4310  -12.5510   18.1340 C   0  0  0  0  0  2  0  0  0  0  0  0
  -27.9480  -12.4200   18.5410 C   0  0  0  0  0  2  0  0  0  0  0  0
  -27.6090  -13.2310   19.8230 C   0  0  0  0  0  3  0  0  0  0  0  0
  -28.6550  -12.9740   20.9280 C   0  0  0  0  0  2  0  0  0  0  0  0
  -29.9850  -13.2990   20.3790 N   0  0  0  0  0  0  0  0  0  0  0  0
  -31.7400  -14.7290   20.0520 O   0  0  0  0  0  0  0  0  0  0  0  0
  -29.9080  -15.4210   21.1760 N   0  0  0  0  0  0  0  0  0  0  0  0
  -29.0120  -15.0980   21.5110 H   0  0  0  0  0  0  0  0  0  0  0  0
  -25.2080  -13.8430   20.5210 C   0  0  0  0  0  0  0  0  0  0  0  0
  -24.1380  -13.0720   20.8860 C   0  0  0  0  0  0  0  0  0  0  0  0
  -24.5990  -11.7200   20.8600 C   0  0  0  0  0  0  0  0  0  0  0  0
  -26.2530  -12.9600   20.2920 N   0  0  0  0  0  0  0  0  0  0  0  0
  -25.8890  -11.6790   20.5530 N   0  0  0  0  0  0  0  0  0  0  0  0
  -23.8720  -10.4600   21.0510 C   0  0  0  0  0  0  0  0  0  0  0  0
  -24.3170   -9.4870   21.9730 C   0  0  0  0  0  3  0  0  0  0  0  0
  -23.5930   -8.2870   22.1530 C   0  0  0  0  0  3  0  0  0  0  0  0
  -22.4130   -8.0530   21.4080 C   0  0  0  0  0  0  0  0  0  0  0  0
  -21.9870   -9.0140   20.4750 C   0  0  0  0  0  3  0  0  0  0  0  0
  -22.7100  -10.2060   20.2920 C   0  0  0  0  0  3  0  0  0  0  0  0
  -21.6580   -6.9070   21.4950 O   0  0  0  0  0  0  0  0  0  0  0  0
  -21.6340   -6.1470   22.6370 C   0  0  0  0  0  0  0  0  0  0  0  0
  -21.2500   -6.6860   23.8840 C   0  0  0  0  0  3  0  0  0  0  0  0
  -21.1730   -5.8510   25.0190 C   0  0  0  0  0  3  0  0  0  0  0  0
  -21.4670   -4.4800   24.9060 C   0  0  0  0  0  0  0  0  0  0  0  0
  -21.8450   -3.9410   23.6630 C   0  0  0  0  0  3  0  0  0  0  0  0
  -21.9240   -4.7720   22.5320 C   0  0  0  0  0  0  0  0  0  0  0  0
  -22.2670   -4.2420   21.3320 F   0  0  0  0  0  0  0  0  0  0  0  0
  -21.3860   -3.6770   25.9920 F   0  0  0  0  0  0  0  0  0  0  0  0
  -22.7400  -13.5480   21.1510 C   0  0  0  0  0  0  0  0  0  0  0  0
  -22.0110  -12.8520   22.0200 N   0  0  0  0  0  0  0  0  0  0  0  0
  -22.3010  -14.5710   20.6270 O   0  0  0  0  0  0  0  0  0  0  0  0
  -22.3800  -12.0230   22.4600 H   0  0  0  0  0  0  0  0  0  0  0  0
  -21.0720  -13.1490   22.2400 H   0  0  0  0  0  0  0  0  0  0  0  0
  -25.3730  -15.2160   20.3450 N   0  0  0  0  0  0  0  0  0  0  0  0
  -24.5970  -15.8620   20.4430 H   0  0  0  0  0  0  0  0  0  0  0  0
  -26.2150  -15.6590   20.0030 H   0  0  0  0  0  0  0  0  0  0  0  0
  -28.4350  -25.7840   21.2430 C   0  0  0  0  0  2  0  0  0  0  0  0
  -28.3710  -26.6970   20.1370 O   0  0  0  0  0  0  0  0  0  0  0  0
  -24.6140  -31.8990   23.2570 C   0  0  0  0  0  0  0  0  0  0  0  0
  -27.2350  -27.4680   20.1470 C   0  0  0  0  0  0  0  0  0  0  0  0
  -23.3970  -30.4950   21.6240 C   0  0  0  0  0  3  0  0  0  0  0  0
  -24.8420  -28.9590   20.1860 C   0  0  0  0  0  0  0  0  0  0  0  0
  -25.9220  -30.8520   21.4150 C   0  0  0  0  0  2  0  0  0  0  0  0
  -26.0030  -29.4850   20.7680 C   0  0  0  0  0  0  0  0  0  0  0  0
  -27.2070  -28.7460   20.7480 C   0  0  0  0  0  3  0  0  0  0  0  0
  -26.0640  -26.9530   19.5610 C   0  0  0  0  0  3  0  0  0  0  0  0
  -24.8650  -27.6910   19.5800 C   0  0  0  0  0  3  0  0  0  0  0  0
  -23.5990  -29.8180   20.2410 C   0  0  0  0  0  2  0  0  0  0  0  0
  -24.6630  -31.0930   22.1580 N   0  0  0  0  0  0  0  0  0  0  0  0
  -23.5320  -32.1900   23.7850 O   0  0  0  0  0  0  0  0  0  0  0  0
  -22.7510  -29.4730   22.5880 C   0  0  0  0  0  0  0  0  0  0  0  0
  -21.4260  -29.2880   22.4680 N   0  0  0  0  0  0  0  0  0  0  0  0
  -23.4380  -28.8480   23.4010 O   0  0  0  0  0  0  0  0  0  0  0  0
  -20.9270  -29.8570   21.7970 H   0  0  0  0  0  0  0  0  0  0  0  0
  -18.0590  -28.0710   22.9620 C   0  0  0  0  0  0  0  0  0  0  0  0
  -20.6140  -28.3460   23.2380 C   0  0  0  0  0  3  0  0  0  0  0  0
  -20.7240  -26.9130   22.6690 C   0  0  0  0  0  2  0  0  0  0  0  0
  -19.6280  -26.5810   21.6510 C   0  0  0  0  0  2  0  0  0  0  0  0
  -18.2450  -26.7190   22.2920 C   0  0  0  0  0  2  0  0  0  0  0  0
  -19.1720  -28.8400   23.3920 C   0  0  0  0  0  0  0  0  0  0  0  0
  -18.9460  -30.1050   23.9780 C   0  0  0  0  0  3  0  0  0  0  0  0
  -17.6370  -30.6000   24.1390 C   0  0  0  0  0  3  0  0  0  0  0  0
  -16.5390  -29.8280   23.7240 C   0  0  0  0  0  3  0  0  0  0  0  0
  -16.7500  -28.5640   23.1420 C   0  0  0  0  0  3  0  0  0  0  0  0
  -25.9070  -32.5180   23.8760 C   0  0  0  0  0  3  0  0  0  0  0  0
  -25.6080  -33.9150   24.2170 N   0  0  0  0  0  0  0  0  0  0  0  0
  -25.9340  -34.9700   23.4590 C   0  0  0  0  0  0  0  0  0  0  0  0
  -26.5920  -34.8690   22.4200 O   0  0  0  0  0  0  0  0  0  0  0  0
  -25.0230  -34.0680   25.0270 H   0  0  0  0  0  0  0  0  0  0  0  0
  -24.2010  -36.7610   23.1300 C   0  0  0  0  0  1  0  0  0  0  0  0
  -25.4500  -36.3550   23.9260 C   0  0  0  0  0  3  0  0  0  0  0  0
  -27.5980  -37.2330   24.7290 C   0  0  0  0  0  1  0  0  0  0  0  0
  -26.4800  -37.4100   23.8060 N   0  0  0  0  0  0  0  0  0  0  0  0
  -26.0740  -38.3270   23.9730 H   0  0  0  0  0  0  0  0  0  0  0  0
  -26.4370  -31.7380   25.1430 C   0  0  1  0  0  0  0  0  0  0  0  0
  -25.3550  -31.4990   26.2200 C   0  0  0  0  0  1  0  0  0  0  0  0
  -27.0160  -30.3630   24.7360 C   0  0  0  0  0  1  0  0  0  0  0  0
  -27.5950  -32.5270   25.7980 C   0  0  0  0  0  1  0  0  0  0  0  0
  2  1  1  0
  3  4  1  0
  4 53  1  0
  4  1  2  0
  5  2  2  0
  6  3  2  0
  6  5  1  0
  7  6  1  0
  9  8  1  0
  9  5  1  0
  9 10  1  0
 10 12  1  0
 10 11  1  0
 13 10  1  0
 13 14  1  0
 15 23  1  0
 16 21  1  0
 17 18  1  0
 17 16  1  0
 19 18  1  0
 19 28  1  0
 19 20  1  0
 21 15  1  0
 21 20  1  0
 22 15  2  0
 23 14  1  0
 23 24  1  0
 25 26  2  0
 26 45  1  0
 27 26  1  0
 27 30  1  0
 28 25  1  0
 28 29  1  0
 29 27  2  0
 30 31  1  0
 31 32  2  0
 33 36  1  0
 33 32  1  0
 34 33  2  0
 35 34  1  0
 35 30  2  0
 36 37  1  0
 37 38  1  0
 38 39  2  0
 40 39  1  0
 40 44  1  0
 41 40  2  0
 42 37  2  0
 42 41  1  0
 43 42  1  0
 45 46  1  0
 46 49  1  0
 46 48  1  0
 47 45  2  0
 50 51  1  0
 50 25  1  0
 52 50  1  0
 54 56  1  0
 54 53  1  0
 55 66  2  0
 56 61  1  0
 57 65  1  0
 57 67  1  0
 58 64  1  0
 58 60  1  0
 59 65  1  0
 60 59  1  0
 61 60  2  0
 62 63  1  0
 62 56  2  0
 63 58  2  0
 64 57  1  0
 65 55  1  0
 67 69  2  0
 68 67  1  0
 70 68  1  0
 71 80  2  0
 71 76  1  0
 72 68  1  0
 72 76  1  0
 73 72  1  0
 74 75  1  0
 74 73  1  0
 75 71  1  0
 76 77  2  0
 77 78  1  0
 79 78  2  0
 80 79  1  0
 81 55  1  0
 81 82  1  0
 81 91  1  0
 82 85  1  0
 83 87  1  0
 83 82  1  0
 84 83  2  0
 87 86  1  0
 89 87  1  0
 89 90  1  0
 89 88  1  0
 91 94  1  1
 91 92  1  0
 93 91  1  0
M  ISO  4  15 100  23 100  53 101  54 101
M  END
>  <TORSDO>  (30) 
F 21

>  <SCORE>  (30) 
-13.758

>  <name>  (30) 
29

>  <ligand_id>  (30) 
29

>  <original_smiles>  (30) 
[H]c1c([H])c([H])c2c(c1[H])C([H])([H])C([H])([H])C([H])([H])C2([H])N([H])C(=O)C1([H])N(C(=O)C([H])(N([H])C(=O)C([H])(N([H])C([H])([H])[H])C([H])([H])[H])C(C([H])([H])[H])(C([H])([H])[H])C([H])([H])[H])C([H])([H])c2c([H])c(OC([H])([H])c3c([H])c([H])c(C([H])(C([H])([H])[H])[N+]([H])([H])C([H])([H])C([H])([H])N([H])C(=O)N4C([H])([H])C([H])([H])C([H])([H])C([H])(n5nc(-c6c([H])c([H])c(Oc7c([H])c([H])c(F)c([H])c7F)c([H])c6[H])c(C(=O)N([H])[H])c5N([H])[H])C4([H])[H])c(F)c3[H])c([H])c([H])c2C1([H])[H]

>  <smiles>  (30) 
[H]c1c([H])c([H])c2c(c1[H])C([H])([H])C([H])([H])C([H])([H])C2([H])N([H])C(=O)C1([H])N(C(=O)C([H])(N([H])C(=O)C([H])(N([H])C([H])([H])[H])C([H])([H])[H])C(C([H])([H])[H])(C([H])([H])[H])C([H])([H])[H])C([H])([H])c2c([H])c(OC([H])([H])c3c([H])c([H])c(C([H])(C([H])([H])[H])[N+]([H])([H])C([H])([H])C([H])([H])N([H])C(=O)N4C([H])([H])C([H])([H])C([H])([H])C([H])(n5nc(-c6c([H])c([H])c(Oc7c([H])c([H])c(F)c([H])c7F)c([H])c6[H])c(C(=O)N([H])[H])c5N([H])[H])C4([H])[H])c(F)c3[H])c([H])c([H])c2C1([H])[H]

$$$$
30:0:0
     RDKit          3D

 94103  0  0  1  0  0  0  0  0999 V2000
  -28.1690  -20.9450   19.5710 C   0  0  0  0  0  3  0  0  0  0  0  0
  -28.6680  -19.6740   19.9360 C   0  0  0  0  0  3  0  0  0  0  0  0
  -30.6880  -20.7260   20.7680 C   0  0  0  0  0  3  0  0  0  0  0  0
  -28.9320  -22.1200   19.7740 C   0  0  0  0  0  0  0  0  0  0  0  0
  -29.9430  -19.5410   20.5390 C   0  0  0  0  0  0  0  0  0  0  0  0
  -30.2010  -22.0010   20.3940 C   0  0  0  0  0  0  0  0  0  0  0  0
  -28.3920  -23.4550   19.3390 C   0  0  0  0  0  0  0  0  0  0  0  0
  -31.0780  -23.2270   20.6380 C   0  0  0  0  0  2  0  0  0  0  0  0
  -30.3660  -24.5790   20.4050 C   0  0  0  0  0  2  0  0  0  0  0  0
  -29.4260  -24.6010   19.1760 C   0  0  1  0  0  0  0  0  0  0  0  0
  -30.2420  -24.3100   17.8900 C   0  0  0  0  0  1  0  0  0  0  0  0
  -27.2040  -23.6330   19.0530 O   0  0  0  0  0  0  0  0  0  0  0  0
  -30.5250  -18.2070   20.9430 C   0  0  0  0  0  0  0  0  0  0  0  0
  -31.6180  -18.1230   21.5130 O   0  0  0  0  0  0  0  0  0  0  0  0
  -29.7550  -16.9090   20.6090 C   0  0  0  0  0  2  0  0  0  0  0  0
  -30.1620  -15.6360   21.4200 C   0  0  0  0  0  2  0  0  0  0  0  0
  -30.7130  -14.4900   20.5400 C   0  0  0  0  0  0  0  0  0  0  0  0
  -30.4010  -12.3800   19.2840 C   0  0  0  0  0  2  0  0  0  0  0  0
  -29.4600  -12.6240   18.0860 C   0  0  0  0  0  2  0  0  0  0  0  0
  -27.9830  -12.4870   18.5060 C   0  0  0  0  0  2  0  0  0  0  0  0
  -27.6540  -13.2820   19.7990 C   0  0  0  0  0  3  0  0  0  0  0  0
  -28.7020  -12.9910   20.8930 C   0  0  0  0  0  2  0  0  0  0  0  0
  -30.0290  -13.3250   20.3510 N   0  0  0  0  0  0  0  0  0  0  0  0
  -31.7910  -14.7020   19.9760 O   0  0  0  0  0  0  0  0  0  0  0  0
  -25.2450  -13.8930   20.4710 C   0  0  0  0  0  0  0  0  0  0  0  0
  -24.1730  -13.1220   20.8340 C   0  0  0  0  0  0  0  0  0  0  0  0
  -24.6350  -11.7700   20.8170 C   0  0  0  0  0  0  0  0  0  0  0  0
  -26.2940  -13.0100   20.2600 N   0  0  0  0  0  0  0  0  0  0  0  0
  -25.9290  -11.7290   20.5230 N   0  0  0  0  0  0  0  0  0  0  0  0
  -23.9080  -10.5090   21.0100 C   0  0  0  0  0  0  0  0  0  0  0  0
  -24.3290   -9.5510   21.9580 C   0  0  0  0  0  3  0  0  0  0  0  0
  -23.6020   -8.3540   22.1380 C   0  0  0  0  0  3  0  0  0  0  0  0
  -22.4410   -8.1060   21.3680 C   0  0  0  0  0  0  0  0  0  0  0  0
  -22.0390   -9.0530   20.4090 C   0  0  0  0  0  3  0  0  0  0  0  0
  -22.7660  -10.2410   20.2280 C   0  0  0  0  0  3  0  0  0  0  0  0
  -21.6880   -6.9610   21.4550 O   0  0  0  0  0  0  0  0  0  0  0  0
  -21.6190   -6.2310   22.6140 C   0  0  0  0  0  0  0  0  0  0  0  0
  -21.1660   -6.7990   23.8250 C   0  0  0  0  0  3  0  0  0  0  0  0
  -21.0440   -5.9960   24.9770 C   0  0  0  0  0  3  0  0  0  0  0  0
  -21.3660   -4.6260   24.9190 C   0  0  0  0  0  0  0  0  0  0  0  0
  -21.8120   -4.0590   23.7130 C   0  0  0  0  0  3  0  0  0  0  0  0
  -21.9350   -4.8580   22.5640 C   0  0  0  0  0  0  0  0  0  0  0  0
  -22.3460   -4.3020   21.3980 F   0  0  0  0  0  0  0  0  0  0  0  0
  -21.2410   -3.8540   26.0220 F   0  0  0  0  0  0  0  0  0  0  0  0
  -22.7730  -13.6000   21.0900 C   0  0  0  0  0  0  0  0  0  0  0  0
  -22.0370  -12.9080   21.9520 N   0  0  0  0  0  0  0  0  0  0  0  0
  -22.3400  -14.6230   20.5610 O   0  0  0  0  0  0  0  0  0  0  0  0
  -22.3990  -12.0810   22.4020 H   0  0  0  0  0  0  0  0  0  0  0  0
  -21.0980  -13.2130   22.1680 H   0  0  0  0  0  0  0  0  0  0  0  0
  -25.4100  -15.2620   20.2860 N   0  0  0  0  0  0  0  0  0  0  0  0
  -24.6420  -15.9170   20.3820 H   0  0  0  0  0  0  0  0  0  0  0  0
  -26.2670  -15.6980   19.9690 H   0  0  0  0  0  0  0  0  0  0  0  0
  -28.7800  -26.0180   18.9750 C   0  0  0  0  0  2  0  0  0  0  0  0
  -28.3860  -26.7150   20.1690 O   0  0  0  0  0  0  0  0  0  0  0  0
  -24.5830  -31.9150   23.2390 C   0  0  0  0  0  0  0  0  0  0  0  0
  -27.2160  -27.4530   20.1460 C   0  0  0  0  0  0  0  0  0  0  0  0
  -23.3720  -30.5070   21.6070 C   0  0  0  0  0  3  0  0  0  0  0  0
  -24.8200  -28.9640   20.1810 C   0  0  0  0  0  0  0  0  0  0  0  0
  -25.9020  -30.8520   21.4110 C   0  0  0  0  0  2  0  0  0  0  0  0
  -25.9800  -29.4810   20.7710 C   0  0  0  0  0  0  0  0  0  0  0  0
  -27.1770  -28.7270   20.7610 C   0  0  0  0  0  3  0  0  0  0  0  0
  -26.0290  -26.9430   19.5750 C   0  0  0  0  0  3  0  0  0  0  0  0
  -24.8380  -27.6920   19.5870 C   0  0  0  0  0  3  0  0  0  0  0  0
  -23.5790  -29.8270   20.2280 C   0  0  0  0  0  2  0  0  0  0  0  0
  -24.6380  -31.1040   22.1460 N   0  0  0  0  0  0  0  0  0  0  0  0
  -23.4970  -32.2150   23.7560 O   0  0  0  0  0  0  0  0  0  0  0  0
  -22.7190  -29.4890   22.5680 C   0  0  0  0  0  0  0  0  0  0  0  0
  -21.3950  -29.3070   22.4390 N   0  0  0  0  0  0  0  0  0  0  0  0
  -23.4010  -28.8640   23.3860 O   0  0  0  0  0  0  0  0  0  0  0  0
  -20.9060  -29.8630   21.7510 H   0  0  0  0  0  0  0  0  0  0  0  0
  -18.0150  -28.1250   22.9390 C   0  0  0  0  0  0  0  0  0  0  0  0
  -20.5750  -28.3710   23.2090 C   0  0  0  0  0  3  0  0  0  0  0  0
  -20.6710  -26.9410   22.6280 C   0  0  0  0  0  2  0  0  0  0  0  0
  -19.5660  -26.6260   21.6150 C   0  0  0  0  0  2  0  0  0  0  0  0
  -18.1850  -26.7760   22.2610 C   0  0  0  0  0  2  0  0  0  0  0  0
  -19.1380  -28.8810   23.3700 C   0  0  0  0  0  0  0  0  0  0  0  0
  -18.9270  -30.1450   23.9630 C   0  0  0  0  0  3  0  0  0  0  0  0
  -17.6240  -30.6530   24.1290 C   0  0  0  0  0  3  0  0  0  0  0  0
  -16.5170  -29.8940   23.7170 C   0  0  0  0  0  3  0  0  0  0  0  0
  -16.7120  -28.6310   23.1270 C   0  0  0  0  0  3  0  0  0  0  0  0
  -25.8720  -32.5330   23.8670 C   0  0  0  0  0  3  0  0  0  0  0  0
  -26.3850  -31.7590   25.1430 C   0  0  1  0  0  0  0  0  0  0  0  0
  -25.2880  -31.5250   26.2080 C   0  0  0  0  0  1  0  0  0  0  0  0
  -26.9640  -30.3800   24.7500 C   0  0  0  0  0  1  0  0  0  0  0  0
  -27.5370  -32.5490   25.8080 C   0  0  0  0  0  1  0  0  0  0  0  0
  -25.5730  -33.9330   24.1950 N   0  0  0  0  0  0  0  0  0  0  0  0
  -25.9060  -34.9810   23.4300 C   0  0  0  0  0  0  0  0  0  0  0  0
  -26.5710  -34.8710   22.3960 O   0  0  0  0  0  0  0  0  0  0  0  0
  -24.9830  -34.0930   24.9980 H   0  0  0  0  0  0  0  0  0  0  0  0
  -24.1820  -36.7770   23.0720 C   0  0  0  0  0  1  0  0  0  0  0  0
  -25.4230  -36.3720   23.8830 C   0  0  0  0  0  3  0  0  0  0  0  0
  -27.5600  -37.2520   24.7100 C   0  0  0  0  0  1  0  0  0  0  0  0
  -26.4590  -37.4210   23.7660 N   0  0  0  0  0  0  0  0  0  0  0  0
  -26.0560  -38.3420   23.9110 H   0  0  0  0  0  0  0  0  0  0  0  0
  1  4  2  0
  1  2  1  0
  2  5  2  0
  4  6  1  0
  5  3  1  0
  5 13  1  0
  6  8  1  0
  6  3  2  0
  7  4  1  0
  9  8  1  0
 10 11  1  6
 10  7  1  0
 10  9  1  0
 12  7  2  0
 13 14  2  0
 15 13  1  0
 15 16  1  0
 17 16  1  0
 18 23  1  0
 19 20  1  0
 19 18  1  0
 21 20  1  0
 21 28  1  0
 21 22  1  0
 23 17  1  0
 23 22  1  0
 24 17  2  0
 25 26  2  0
 26 45  1  0
 27 26  1  0
 27 30  1  0
 28 25  1  0
 28 29  1  0
 29 27  2  0
 30 31  1  0
 31 32  2  0
 33 36  1  0
 33 32  1  0
 34 33  2  0
 35 34  1  0
 35 30  2  0
 36 37  1  0
 37 38  1  0
 38 39  2  0
 40 39  1  0
 40 44  1  0
 41 40  2  0
 42 37  2  0
 42 41  1  0
 43 42  1  0
 45 46  1  0
 46 49  1  0
 46 48  1  0
 47 45  2  0
 50 51  1  0
 50 25  1  0
 52 50  1  0
 53 10  1  0
 53 54  1  0
 55 66  2  0
 56 54  1  0
 56 61  1  0
 57 65  1  0
 57 67  1  0
 58 64  1  0
 58 60  1  0
 59 65  1  0
 60 59  1  0
 61 60  2  0
 62 63  1  0
 62 56  2  0
 63 58  2  0
 64 57  1  0
 65 55  1  0
 67 69  2  0
 68 67  1  0
 70 68  1  0
 71 80  2  0
 71 76  1  0
 72 68  1  0
 72 76  1  0
 73 72  1  0
 74 75  1  0
 74 73  1  0
 75 71  1  0
 76 77  2  0
 77 78  1  0
 79 78  2  0
 80 79  1  0
 81 55  1  0
 81 86  1  0
 81 82  1  0
 82 85  1  1
 82 83  1  0
 84 82  1  0
 86 89  1  0
 87 91  1  0
 87 86  1  0
 88 87  2  0
 91 90  1  0
 93 91  1  0
 93 94  1  0
 93 92  1  0
M  ISO  4  16 100  17 100  53 101  54 101
M  END
>  <TORSDO>  (31) 
F 20

>  <SCORE>  (31) 
-14.221

>  <name>  (31) 
30

>  <ligand_id>  (31) 
30

>  <original_smiles>  (31) 
[H]c1c([H])c([H])c2c(c1[H])C([H])([H])C([H])([H])C([H])([H])C2([H])N([H])C(=O)C1([H])N(C(=O)C([H])(N([H])C(=O)C([H])(N([H])C([H])([H])[H])C([H])([H])[H])C(C([H])([H])[H])(C([H])([H])[H])C([H])([H])[H])C([H])([H])c2c([H])c(OC([H])([H])C3(C([H])([H])[H])C(=O)c4c([H])c([H])c(C(=O)C([H])([H])C([H])([H])C(=O)N5C([H])([H])C([H])([H])C([H])([H])C([H])(n6nc(-c7c([H])c([H])c(Oc8c([H])c([H])c(F)c([H])c8F)c([H])c7[H])c(C(=O)N([H])[H])c6N([H])[H])C5([H])[H])c([H])c4C([H])([H])C3([H])[H])c([H])c([H])c2C1([H])[H]

>  <smiles>  (31) 
[H]c1c([H])c([H])c2c(c1[H])C([H])([H])C([H])([H])C([H])([H])C2([H])N([H])C(=O)C1([H])N(C(=O)C([H])(N([H])C(=O)C([H])(N([H])C([H])([H])[H])C([H])([H])[H])C(C([H])([H])[H])(C([H])([H])[H])C([H])([H])[H])C([H])([H])c2c([H])c(OC([H])([H])C3(C([H])([H])[H])C(=O)c4c([H])c([H])c(C(=O)C([H])([H])C([H])([H])C(=O)N5C([H])([H])C([H])([H])C([H])([H])C([H])(n6nc(-c7c([H])c([H])c(Oc8c([H])c([H])c(F)c([H])c8F)c([H])c7[H])c(C(=O)N([H])[H])c6N([H])[H])C5([H])[H])c([H])c4C([H])([H])C3([H])[H])c([H])c([H])c2C1([H])[H]

$$$$
31:0:0
     RDKit          3D

 94103  0  0  1  0  0  0  0  0999 V2000
  -33.1020  -21.9150   20.4670 C   0  0  0  0  0  3  0  0  0  0  0  0
  -32.5550  -20.6680   20.8310 C   0  0  0  0  0  3  0  0  0  0  0  0
  -32.2640  -23.0290   20.2550 C   0  0  0  0  0  3  0  0  0  0  0  0
  -30.3230  -21.6500   20.7570 C   0  0  0  0  0  3  0  0  0  0  0  0
  -31.1580  -20.5170   20.9720 C   0  0  0  0  0  0  0  0  0  0  0  0
  -30.8680  -22.9110   20.3950 C   0  0  0  0  0  0  0  0  0  0  0  0
  -30.5600  -19.1790   21.4430 C   0  0  0  0  0  2  0  0  0  0  0  0
  -29.6450  -18.0540   18.5830 C   0  0  0  0  0  2  0  0  0  0  0  0
  -31.0590  -18.0240   19.1600 C   0  0  0  0  0  2  0  0  0  0  0  0
  -28.8150  -17.1440   19.4920 C   0  0  0  0  0  2  0  0  0  0  0  0
  -30.8740  -17.8430   20.6740 C   0  0  0  0  0  3  0  0  0  0  0  0
  -29.6430  -16.8910   20.7740 C   0  0  0  0  0  3  0  0  0  0  0  0
  -30.6030  -14.5020   20.4700 C   0  0  0  0  0  0  0  0  0  0  0  0
  -30.3540  -12.3480   19.3000 C   0  0  0  0  0  2  0  0  0  0  0  0
  -29.3990  -12.5770   18.1060 C   0  0  0  0  0  2  0  0  0  0  0  0
  -27.9200  -12.4360   18.5300 C   0  0  0  0  0  2  0  0  0  0  0  0
  -27.5920  -13.2380   19.8180 C   0  0  0  0  0  3  0  0  0  0  0  0
  -28.6500  -12.9630   20.9120 C   0  0  0  0  0  2  0  0  0  0  0  0
  -29.9790  -13.2960   20.3570 N   0  0  0  0  0  0  0  0  0  0  0  0
  -31.7000  -14.7480   19.9650 O   0  0  0  0  0  0  0  0  0  0  0  0
  -29.8220  -15.4480   21.0250 N   0  0  0  0  0  0  0  0  0  0  0  0
  -29.0130  -15.0330   21.4610 H   0  0  0  0  0  0  0  0  0  0  0  0
  -25.1910  -13.8630   20.5140 C   0  0  0  0  0  0  0  0  0  0  0  0
  -24.1190  -13.0960   20.8840 C   0  0  0  0  0  0  0  0  0  0  0  0
  -24.5780  -11.7450   20.8600 C   0  0  0  0  0  0  0  0  0  0  0  0
  -26.2350  -12.9760   20.2910 N   0  0  0  0  0  0  0  0  0  0  0  0
  -25.8680  -11.6970   20.5560 N   0  0  0  0  0  0  0  0  0  0  0  0
  -23.8500  -10.4850   21.0580 C   0  0  0  0  0  0  0  0  0  0  0  0
  -24.2960   -9.5150   21.9800 C   0  0  0  0  0  3  0  0  0  0  0  0
  -23.5740   -8.3160   22.1650 C   0  0  0  0  0  3  0  0  0  0  0  0
  -22.3880   -8.0840   21.4290 C   0  0  0  0  0  0  0  0  0  0  0  0
  -21.9610   -9.0440   20.4930 C   0  0  0  0  0  3  0  0  0  0  0  0
  -22.6860  -10.2330   20.3070 C   0  0  0  0  0  3  0  0  0  0  0  0
  -21.6340   -6.9420   21.5230 O   0  0  0  0  0  0  0  0  0  0  0  0
  -21.6170   -6.1810   22.6660 C   0  0  0  0  0  0  0  0  0  0  0  0
  -21.2500   -6.7230   23.9160 C   0  0  0  0  0  3  0  0  0  0  0  0
  -21.1800   -5.8900   25.0500 C   0  0  0  0  0  3  0  0  0  0  0  0
  -21.4640   -4.5160   24.9350 C   0  0  0  0  0  0  0  0  0  0  0  0
  -21.8210   -3.9740   23.6880 C   0  0  0  0  0  3  0  0  0  0  0  0
  -21.8940   -4.8040   22.5560 C   0  0  0  0  0  0  0  0  0  0  0  0
  -22.2200   -4.2700   21.3520 F   0  0  0  0  0  0  0  0  0  0  0  0
  -21.3890   -3.7140   26.0230 F   0  0  0  0  0  0  0  0  0  0  0  0
  -22.7210  -13.5790   21.1530 C   0  0  0  0  0  0  0  0  0  0  0  0
  -21.9890  -12.8900   22.0200 N   0  0  0  0  0  0  0  0  0  0  0  0
  -22.2860  -14.6000   20.6220 O   0  0  0  0  0  0  0  0  0  0  0  0
  -22.3550  -12.0680   22.4780 H   0  0  0  0  0  0  0  0  0  0  0  0
  -21.0480  -13.1890   22.2320 H   0  0  0  0  0  0  0  0  0  0  0  0
  -25.3610  -15.2330   20.3310 N   0  0  0  0  0  0  0  0  0  0  0  0
  -24.5910  -15.8810   20.4430 H   0  0  0  0  0  0  0  0  0  0  0  0
  -26.2170  -15.6790   20.0260 H   0  0  0  0  0  0  0  0  0  0  0  0
  -29.9940  -24.1410   20.1070 C   0  0  0  0  0  2  0  0  0  0  0  0
  -29.7460  -25.0810   21.3170 C   0  0  0  0  0  2  0  0  0  0  0  0
  -29.4130  -26.5630   20.9670 C   0  0  0  0  0  2  0  0  0  0  0  0
  -28.3710  -26.6200   19.9980 O   0  0  0  0  0  0  0  0  0  0  0  0
  -24.6380  -31.9000   23.2370 C   0  0  0  0  0  0  0  0  0  0  0  0
  -27.2620  -27.4290   20.1490 C   0  0  0  0  0  0  0  0  0  0  0  0
  -23.4170  -30.4860   21.6170 C   0  0  0  0  0  3  0  0  0  0  0  0
  -24.8620  -28.9360   20.1950 C   0  0  0  0  0  0  0  0  0  0  0  0
  -25.9460  -30.8290   21.4080 C   0  0  0  0  0  2  0  0  0  0  0  0
  -26.0270  -29.4520   20.7810 C   0  0  0  0  0  0  0  0  0  0  0  0
  -27.2300  -28.7030   20.7740 C   0  0  0  0  0  3  0  0  0  0  0  0
  -26.0820  -26.9340   19.5620 C   0  0  0  0  0  3  0  0  0  0  0  0
  -24.8830  -27.6690   19.5880 C   0  0  0  0  0  3  0  0  0  0  0  0
  -23.6190  -29.7950   20.2420 C   0  0  0  0  0  2  0  0  0  0  0  0
  -24.6850  -31.0850   22.1450 N   0  0  0  0  0  0  0  0  0  0  0  0
  -23.5570  -32.2030   23.7590 O   0  0  0  0  0  0  0  0  0  0  0  0
  -22.7690  -29.4730   22.5890 C   0  0  0  0  0  0  0  0  0  0  0  0
  -21.4450  -29.2860   22.4660 N   0  0  0  0  0  0  0  0  0  0  0  0
  -23.4570  -28.8540   23.4050 O   0  0  0  0  0  0  0  0  0  0  0  0
  -20.9510  -29.8360   21.7760 H   0  0  0  0  0  0  0  0  0  0  0  0
  -18.0800  -28.0670   22.9710 C   0  0  0  0  0  0  0  0  0  0  0  0
  -20.6340  -28.3500   23.2450 C   0  0  0  0  0  3  0  0  0  0  0  0
  -20.7500  -26.9130   22.6830 C   0  0  0  0  0  2  0  0  0  0  0  0
  -19.6530  -26.5710   21.6710 C   0  0  0  0  0  2  0  0  0  0  0  0
  -18.2690  -26.7120   22.3110 C   0  0  0  0  0  2  0  0  0  0  0  0
  -19.1910  -28.8420   23.3970 C   0  0  0  0  0  0  0  0  0  0  0  0
  -18.9620  -30.1110   23.9730 C   0  0  0  0  0  3  0  0  0  0  0  0
  -17.6530  -30.6020   24.1320 C   0  0  0  0  0  3  0  0  0  0  0  0
  -16.5560  -29.8240   23.7250 C   0  0  0  0  0  3  0  0  0  0  0  0
  -16.7700  -28.5590   23.1500 C   0  0  0  0  0  3  0  0  0  0  0  0
  -25.9320  -32.5210   23.8530 C   0  0  0  0  0  3  0  0  0  0  0  0
  -25.6300  -33.9160   24.1950 N   0  0  0  0  0  0  0  0  0  0  0  0
  -25.9480  -34.9720   23.4320 C   0  0  0  0  0  0  0  0  0  0  0  0
  -26.5980  -34.8720   22.3900 O   0  0  0  0  0  0  0  0  0  0  0  0
  -25.0490  -34.0680   25.0050 H   0  0  0  0  0  0  0  0  0  0  0  0
  -24.2040  -36.7580   23.1210 C   0  0  0  0  0  1  0  0  0  0  0  0
  -25.4640  -36.3570   23.9040 C   0  0  0  0  0  3  0  0  0  0  0  0
  -27.6160  -37.2440   24.6860 C   0  0  0  0  0  1  0  0  0  0  0  0
  -26.4900  -37.4130   23.7720 N   0  0  0  0  0  0  0  0  0  0  0  0
  -26.0850  -38.3310   23.9330 H   0  0  0  0  0  0  0  0  0  0  0  0
  -26.4680  -31.7400   25.1170 C   0  0  1  0  0  0  0  0  0  0  0  0
  -25.3900  -31.4990   26.1980 C   0  0  0  0  0  1  0  0  0  0  0  0
  -27.0450  -30.3640   24.7100 C   0  0  0  0  0  1  0  0  0  0  0  0
  -27.6290  -32.5290   25.7670 C   0  0  0  0  0  1  0  0  0  0  0  0
  1  2  1  0
  2  5  2  0
  3  6  1  0
  3  1  2  0
  4  5  1  0
  5  7  1  0
  6  4  2  0
  8  9  1  0
  8 10  1  0
  9 11  1  0
 10 12  1  0
 11 12  1  0
 11  7  1  0
 12 21  1  0
 13 21  1  0
 14 19  1  0
 15 16  1  0
 15 14  1  0
 17 16  1  0
 17 26  1  0
 17 18  1  0
 19 13  1  0
 19 18  1  0
 20 13  2  0
 21 22  1  0
 23 24  2  0
 24 43  1  0
 25 24  1  0
 25 28  1  0
 26 23  1  0
 26 27  1  0
 27 25  2  0
 28 29  1  0
 29 30  2  0
 31 34  1  0
 31 30  1  0
 32 31  2  0
 33 32  1  0
 33 28  2  0
 34 35  1  0
 35 36  1  0
 36 37  2  0
 38 37  1  0
 38 42  1  0
 39 38  2  0
 40 35  2  0
 40 39  1  0
 41 40  1  0
 43 44  1  0
 44 47  1  0
 44 46  1  0
 45 43  2  0
 48 49  1  0
 48 23  1  0
 50 48  1  0
 51  6  1  0
 51 52  1  0
 53 52  1  0
 54 56  1  0
 54 53  1  0
 55 66  2  0
 56 61  1  0
 57 65  1  0
 57 67  1  0
 58 64  1  0
 58 60  1  0
 59 65  1  0
 60 59  1  0
 61 60  2  0
 62 63  1  0
 62 56  2  0
 63 58  2  0
 64 57  1  0
 65 55  1  0
 67 69  2  0
 68 67  1  0
 70 68  1  0
 71 80  2  0
 71 76  1  0
 72 68  1  0
 72 76  1  0
 73 72  1  0
 74 75  1  0
 74 73  1  0
 75 71  1  0
 76 77  2  0
 77 78  1  0
 79 78  2  0
 80 79  1  0
 81 55  1  0
 81 82  1  0
 81 91  1  0
 82 85  1  0
 83 87  1  0
 83 82  1  0
 84 83  2  0
 87 86  1  0
 89 87  1  0
 89 90  1  0
 89 88  1  0
 91 94  1  1
 91 92  1  0
 93 91  1  0
M  ISO  4  13 100  21 100  53 101  54 101
M  END
>  <TORSDO>  (32) 
F 21

>  <SCORE>  (32) 
-13.706

>  <name>  (32) 
31

>  <ligand_id>  (32) 
31

>  <original_smiles>  (32) 
[H]c1c([H])c([H])c2c(c1[H])C([H])([H])C([H])([H])C([H])([H])C2([H])N([H])C(=O)C1([H])N(C(=O)C([H])(N([H])C(=O)C([H])(N([H])C([H])([H])[H])C([H])([H])[H])C(C([H])([H])[H])(C([H])([H])[H])C([H])([H])[H])C([H])([H])c2c([H])c(OC([H])([H])C([H])([H])C([H])([H])c3c([H])c([H])c([H])c(C([H])([H])C4([H])C([H])([H])C([H])([H])C([H])([H])C4([H])N([H])C(=O)N4C([H])([H])C([H])([H])C([H])([H])C([H])(n5nc(-c6c([H])c([H])c(Oc7c([H])c([H])c(F)c([H])c7F)c([H])c6[H])c(C(=O)N([H])[H])c5N([H])[H])C4([H])[H])c3[H])c([H])c([H])c2C1([H])[H]

>  <smiles>  (32) 
[H]c1c([H])c([H])c2c(c1[H])C([H])([H])C([H])([H])C([H])([H])C2([H])N([H])C(=O)C1([H])N(C(=O)C([H])(N([H])C(=O)C([H])(N([H])C([H])([H])[H])C([H])([H])[H])C(C([H])([H])[H])(C([H])([H])[H])C([H])([H])[H])C([H])([H])c2c([H])c(OC([H])([H])C([H])([H])C([H])([H])c3c([H])c([H])c([H])c(C([H])([H])C4([H])C([H])([H])C([H])([H])C([H])([H])C4([H])N([H])C(=O)N4C([H])([H])C([H])([H])C([H])([H])C([H])(n5nc(-c6c([H])c([H])c(Oc7c([H])c([H])c(F)c([H])c7F)c([H])c6[H])c(C(=O)N([H])[H])c5N([H])[H])C4([H])[H])c3[H])c([H])c([H])c2C1([H])[H]

$$$$
32:0:0
     RDKit          3D

 92100  0  0  1  0  0  0  0  0999 V2000
  -31.6210  -23.7930   19.7340 C   0  0  0  0  0  3  0  0  0  0  0  0
  -31.3380  -22.4120   19.6880 C   0  0  0  0  0  3  0  0  0  0  0  0
  -30.6170  -24.7180   20.0810 C   0  0  0  0  0  3  0  0  0  0  0  0
  -29.0520  -22.8700   20.3800 C   0  0  0  0  0  3  0  0  0  0  0  0
  -30.0550  -21.9220   20.0240 C   0  0  0  0  0  0  0  0  0  0  0  0
  -29.3170  -24.2720   20.3880 C   0  0  0  0  0  0  0  0  0  0  0  0
  -29.7430  -20.4100   19.8480 C   0  0  0  0  0  2  0  0  0  0  0  0
  -31.5870  -19.6510   21.3640 C   0  0  0  0  0  1  0  0  0  0  0  0
  -30.1930  -19.4320   20.9030 N   0  0  2  0  0  4  0  0  0  0  0  0
  -29.6120  -19.6220   21.7060 H   0  0  0  0  0  0  0  0  0  0  0  0
  -29.9160  -18.0000   20.5040 C   0  0  0  0  0  3  0  0  0  0  0  0
  -30.3940  -16.8870   21.5000 C   0  0  0  0  0  3  0  0  0  0  0  0
  -30.6530  -14.5320   20.5570 C   0  0  0  0  0  0  0  0  0  0  0  0
  -30.3890  -12.3780   19.3640 C   0  0  0  0  0  2  0  0  0  0  0  0
  -29.4450  -12.5680   18.1580 C   0  0  0  0  0  2  0  0  0  0  0  0
  -27.9710  -12.4090   18.5820 C   0  0  0  0  0  2  0  0  0  0  0  0
  -27.6210  -13.2380   19.8470 C   0  0  0  0  0  3  0  0  0  0  0  0
  -28.6730  -13.0170   20.9560 C   0  0  0  0  0  2  0  0  0  0  0  0
  -29.9950  -13.3490   20.3970 N   0  0  0  0  0  0  0  0  0  0  0  0
  -31.7690  -14.7460   20.0790 O   0  0  0  0  0  0  0  0  0  0  0  0
  -29.9540  -15.5110   21.1720 N   0  0  0  0  0  0  0  0  0  0  0  0
  -29.0360  -15.2430   21.4990 H   0  0  0  0  0  0  0  0  0  0  0  0
  -25.2130  -13.8280   20.5380 C   0  0  0  0  0  0  0  0  0  0  0  0
  -24.1500  -13.0470   20.9040 C   0  0  0  0  0  0  0  0  0  0  0  0
  -24.6220  -11.7000   20.8820 C   0  0  0  0  0  0  0  0  0  0  0  0
  -26.2680  -12.9550   20.3180 N   0  0  0  0  0  0  0  0  0  0  0  0
  -25.9150  -11.6700   20.5820 N   0  0  0  0  0  0  0  0  0  0  0  0
  -23.9060  -10.4310   21.0740 C   0  0  0  0  0  0  0  0  0  0  0  0
  -24.3490   -9.4650   22.0030 C   0  0  0  0  0  3  0  0  0  0  0  0
  -23.6340   -8.2620   22.1810 C   0  0  0  0  0  3  0  0  0  0  0  0
  -22.4600   -8.0160   21.4290 C   0  0  0  0  0  0  0  0  0  0  0  0
  -22.0370   -8.9710   20.4880 C   0  0  0  0  0  3  0  0  0  0  0  0
  -22.7530  -10.1660   20.3090 C   0  0  0  0  0  3  0  0  0  0  0  0
  -21.7140   -6.8640   21.5170 O   0  0  0  0  0  0  0  0  0  0  0  0
  -21.6870   -6.1120   22.6640 C   0  0  0  0  0  0  0  0  0  0  0  0
  -21.2740   -6.6530   23.9010 C   0  0  0  0  0  3  0  0  0  0  0  0
  -21.1940   -5.8250   25.0390 C   0  0  0  0  0  3  0  0  0  0  0  0
  -21.5160   -4.4590   24.9400 C   0  0  0  0  0  0  0  0  0  0  0  0
  -21.9210   -3.9160   23.7080 C   0  0  0  0  0  3  0  0  0  0  0  0
  -22.0030   -4.7420   22.5720 C   0  0  0  0  0  0  0  0  0  0  0  0
  -22.3740   -4.2110   21.3820 F   0  0  0  0  0  0  0  0  0  0  0  0
  -21.4310   -3.6610   26.0310 F   0  0  0  0  0  0  0  0  0  0  0  0
  -22.7460  -13.5130   21.1650 C   0  0  0  0  0  0  0  0  0  0  0  0
  -22.0170  -12.8120   22.0280 N   0  0  0  0  0  0  0  0  0  0  0  0
  -22.3030  -14.5330   20.6400 O   0  0  0  0  0  0  0  0  0  0  0  0
  -22.3880  -11.9880   22.4780 H   0  0  0  0  0  0  0  0  0  0  0  0
  -21.0750  -13.1070   22.2440 H   0  0  0  0  0  0  0  0  0  0  0  0
  -25.3670  -15.1980   20.3540 N   0  0  0  0  0  0  0  0  0  0  0  0
  -24.5920  -15.8450   20.4520 H   0  0  0  0  0  0  0  0  0  0  0  0
  -26.2110  -15.6390   20.0090 H   0  0  0  0  0  0  0  0  0  0  0  0
  -28.2160  -25.2880   20.7470 C   0  0  0  0  0  2  0  0  0  0  0  0
  -28.3960  -26.6410   20.2430 O   0  0  0  0  0  0  0  0  0  0  0  0
  -24.6100  -31.9210   23.2650 C   0  0  0  0  0  0  0  0  0  0  0  0
  -27.2510  -27.4240   20.2250 C   0  0  0  0  0  0  0  0  0  0  0  0
  -23.4090  -30.5060   21.6350 C   0  0  0  0  0  3  0  0  0  0  0  0
  -24.8660  -28.9620   20.2170 C   0  0  0  0  0  0  0  0  0  0  0  0
  -25.9410  -30.8510   21.4470 C   0  0  0  0  0  2  0  0  0  0  0  0
  -26.0260  -29.4760   20.8090 C   0  0  0  0  0  0  0  0  0  0  0  0
  -27.2250  -28.7170   20.8060 C   0  0  0  0  0  3  0  0  0  0  0  0
  -26.0760  -26.9450   19.6040 C   0  0  0  0  0  3  0  0  0  0  0  0
  -24.8870  -27.6970   19.6090 C   0  0  0  0  0  3  0  0  0  0  0  0
  -23.6230  -29.8250   20.2580 C   0  0  0  0  0  2  0  0  0  0  0  0
  -24.6720  -31.1040   22.1750 N   0  0  0  0  0  0  0  0  0  0  0  0
  -23.5230  -32.2200   23.7770 O   0  0  0  0  0  0  0  0  0  0  0  0
  -22.7540  -29.4880   22.5970 C   0  0  0  0  0  0  0  0  0  0  0  0
  -21.4310  -29.2950   22.4580 N   0  0  0  0  0  0  0  0  0  0  0  0
  -23.4320  -28.8750   23.4250 O   0  0  0  0  0  0  0  0  0  0  0  0
  -20.9450  -29.8400   21.7600 H   0  0  0  0  0  0  0  0  0  0  0  0
  -18.0620  -28.0700   22.9240 C   0  0  0  0  0  0  0  0  0  0  0  0
  -20.6130  -28.3580   23.2280 C   0  0  0  0  0  3  0  0  0  0  0  0
  -20.7390  -26.9210   22.6690 C   0  0  0  0  0  2  0  0  0  0  0  0
  -19.6530  -26.5760   21.6440 C   0  0  0  0  0  2  0  0  0  0  0  0
  -18.2610  -26.7150   22.2670 C   0  0  0  0  0  2  0  0  0  0  0  0
  -19.1670  -28.8480   23.3610 C   0  0  0  0  0  0  0  0  0  0  0  0
  -18.9280  -30.1150   23.9340 C   0  0  0  0  0  3  0  0  0  0  0  0
  -17.6160  -30.6060   24.0760 C   0  0  0  0  0  3  0  0  0  0  0  0
  -16.5250  -29.8260   23.6550 C   0  0  0  0  0  3  0  0  0  0  0  0
  -16.7490  -28.5590   23.0850 C   0  0  0  0  0  3  0  0  0  0  0  0
  -25.8950  -32.5450   23.8940 C   0  0  0  0  0  3  0  0  0  0  0  0
  -25.5910  -33.9450   24.2170 N   0  0  0  0  0  0  0  0  0  0  0  0
  -25.9170  -34.9900   23.4460 C   0  0  0  0  0  0  0  0  0  0  0  0
  -26.5820  -34.8780   22.4110 O   0  0  0  0  0  0  0  0  0  0  0  0
  -25.0010  -34.1060   25.0200 H   0  0  0  0  0  0  0  0  0  0  0  0
  -24.1820  -36.7750   23.0890 C   0  0  0  0  0  1  0  0  0  0  0  0
  -25.4310  -36.3820   23.8930 C   0  0  0  0  0  3  0  0  0  0  0  0
  -27.5710  -37.2770   24.6960 C   0  0  0  0  0  1  0  0  0  0  0  0
  -26.4600  -37.4360   23.7610 N   0  0  0  0  0  0  0  0  0  0  0  0
  -26.0540  -38.3560   23.9050 H   0  0  0  0  0  0  0  0  0  0  0  0
  -26.4050  -31.7760   25.1750 C   0  0  1  0  0  0  0  0  0  0  0  0
  -25.3070  -31.5450   26.2380 C   0  0  0  0  0  1  0  0  0  0  0  0
  -26.9880  -30.3960   24.7910 C   0  0  0  0  0  1  0  0  0  0  0  0
  -27.5540  -32.5710   25.8390 C   0  0  0  0  0  1  0  0  0  0  0  0
  1  3  1  0
  2  1  2  0
  2  5  1  0
  3  6  2  0
  4  6  1  0
  5  4  2  0
  6 51  1  0
  7  5  1  0
  7  9  1  0
  9  8  1  0
  9 10  1  1
 11  9  1  0
 11 12  2  0
 13 21  1  0
 14 19  1  0
 15 16  1  0
 15 14  1  0
 17 16  1  0
 17 26  1  0
 17 18  1  0
 19 13  1  0
 19 18  1  0
 20 13  2  0
 21 22  1  0
 21 12  1  0
 23 24  2  0
 24 43  1  0
 25 24  1  0
 25 28  1  0
 26 23  1  0
 26 27  1  0
 27 25  2  0
 28 29  1  0
 29 30  2  0
 31 34  1  0
 31 30  1  0
 32 31  2  0
 33 32  1  0
 33 28  2  0
 34 35  1  0
 35 36  1  0
 36 37  2  0
 38 37  1  0
 38 42  1  0
 39 38  2  0
 40 35  2  0
 40 39  1  0
 41 40  1  0
 43 44  1  0
 44 47  1  0
 44 46  1  0
 45 43  2  0
 48 49  1  0
 48 23  1  0
 50 48  1  0
 52 51  1  0
 53 64  2  0
 54 52  1  0
 54 59  1  0
 55 63  1  0
 55 65  1  0
 56 62  1  0
 56 58  1  0
 57 63  1  0
 58 57  1  0
 59 58  2  0
 60 61  1  0
 60 54  2  0
 61 56  2  0
 62 55  1  0
 63 53  1  0
 65 67  2  0
 66 65  1  0
 68 66  1  0
 69 78  2  0
 69 74  1  0
 70 66  1  0
 70 74  1  0
 71 70  1  0
 72 73  1  0
 72 71  1  0
 73 69  1  0
 74 75  2  0
 75 76  1  0
 77 76  2  0
 78 77  1  0
 79 53  1  0
 79 80  1  0
 79 89  1  0
 80 83  1  0
 81 85  1  0
 81 80  1  0
 82 81  2  0
 85 84  1  0
 87 85  1  0
 87 88  1  0
 87 86  1  0
 89 92  1  1
 89 90  1  0
 91 89  1  0
M  ISO  4  13 100  21 100  51 101  52 101
M  END
>  <TORSDO>  (33) 
F 21

>  <SCORE>  (33) 
-13.604

>  <name>  (33) 
32

>  <ligand_id>  (33) 
32

>  <original_smiles>  (33) 
[H]c1c([H])c([H])c2c(c1[H])C([H])([H])C([H])([H])C([H])([H])C2([H])N([H])C(=O)C1([H])N(C(=O)C([H])(N([H])C(=O)C([H])(N([H])C([H])([H])[H])C([H])([H])[H])C(C([H])([H])[H])(C([H])([H])[H])C([H])([H])[H])C([H])([H])c2c([H])c(OC([H])([H])c3c([H])c([H])c([H])c(C([H])([H])[N+]([H])(C([H])([H])[H])C([H])([H])C([H])([H])N([H])C(=O)N4C([H])([H])C([H])([H])C([H])([H])C([H])(n5nc(-c6c([H])c([H])c(Oc7c([H])c([H])c(F)c([H])c7F)c([H])c6[H])c(C(=O)N([H])[H])c5N([H])[H])C4([H])[H])c3[H])c([H])c([H])c2C1([H])[H]

>  <smiles>  (33) 
[H]c1c([H])c([H])c2c(c1[H])C([H])([H])C([H])([H])C([H])([H])C2([H])N([H])C(=O)C1([H])N(C(=O)C([H])(N([H])C(=O)C([H])(N([H])C([H])([H])[H])C([H])([H])[H])C(C([H])([H])[H])(C([H])([H])[H])C([H])([H])[H])C([H])([H])c2c([H])c(OC([H])([H])c3c([H])c([H])c([H])c(C([H])([H])[N+]([H])(C([H])([H])[H])C([H])([H])C([H])([H])N([H])C(=O)N4C([H])([H])C([H])([H])C([H])([H])C([H])(n5nc(-c6c([H])c([H])c(Oc7c([H])c([H])c(F)c([H])c7F)c([H])c6[H])c(C(=O)N([H])[H])c5N([H])[H])C4([H])[H])c3[H])c([H])c([H])c2C1([H])[H]

$$$$
33:0:0
     RDKit          3D

 92101  0  0  1  0  0  0  0  0999 V2000
  -32.0780  -21.1080   20.4880 C   0  0  0  0  0  3  0  0  0  0  0  0
  -31.6900  -19.7790   20.7490 C   0  0  0  0  0  3  0  0  0  0  0  0
  -29.4240  -20.5370   21.1920 C   0  0  0  0  0  3  0  0  0  0  0  0
  -31.1460  -22.1610   20.5790 C   0  0  0  0  0  0  0  0  0  0  0  0
  -29.8050  -21.8740   20.9230 C   0  0  0  0  0  0  0  0  0  0  0  0
  -30.3570  -19.4780   21.1120 C   0  0  0  0  0  0  0  0  0  0  0  0
  -31.6050  -23.5850   20.2910 C   0  0  0  0  0  2  0  0  0  0  0  0
  -28.7590  -22.9820   21.0320 C   0  0  0  0  0  2  0  0  0  0  0  0
  -30.6470  -24.6600   20.8240 C   0  0  0  0  0  2  0  0  0  0  0  0
  -29.1870  -24.3560   20.4580 C   0  0  0  0  0  3  0  0  0  0  0  0
  -29.9290  -18.1690   21.4070 N   0  0  0  0  0  0  0  0  0  0  0  0
  -28.9390  -18.0270   21.5910 H   0  0  0  0  0  0  0  0  0  0  0  0
  -30.7140  -17.0150   20.9530 C   0  0  0  0  0  2  0  0  0  0  0  0
  -30.0510  -15.6470   21.2660 C   0  0  0  0  0  2  0  0  0  0  0  0
  -30.6930  -14.4680   20.4940 C   0  0  0  0  0  0  0  0  0  0  0  0
  -30.3620  -12.3490   19.2660 C   0  0  0  0  0  2  0  0  0  0  0  0
  -29.4220  -12.5940   18.0690 C   0  0  0  0  0  2  0  0  0  0  0  0
  -27.9470  -12.4600   18.4950 C   0  0  0  0  0  2  0  0  0  0  0  0
  -27.6190  -13.2740   19.7750 C   0  0  0  0  0  3  0  0  0  0  0  0
  -28.6730  -13.0210   20.8780 C   0  0  0  0  0  2  0  0  0  0  0  0
  -30.0010  -13.3100   20.3190 N   0  0  0  0  0  0  0  0  0  0  0  0
  -31.7980  -14.6480   19.9740 O   0  0  0  0  0  0  0  0  0  0  0  0
  -25.2140  -13.8880   20.4580 C   0  0  0  0  0  0  0  0  0  0  0  0
  -24.1420  -13.1170   20.8260 C   0  0  0  0  0  0  0  0  0  0  0  0
  -24.6050  -11.7660   20.8120 C   0  0  0  0  0  0  0  0  0  0  0  0
  -26.2620  -13.0050   20.2450 N   0  0  0  0  0  0  0  0  0  0  0  0
  -25.8970  -11.7240   20.5140 N   0  0  0  0  0  0  0  0  0  0  0  0
  -23.8780  -10.5050   21.0080 C   0  0  0  0  0  0  0  0  0  0  0  0
  -24.3120   -9.5400   21.9450 C   0  0  0  0  0  3  0  0  0  0  0  0
  -23.5860   -8.3440   22.1300 C   0  0  0  0  0  3  0  0  0  0  0  0
  -22.4120   -8.1040   21.3760 C   0  0  0  0  0  0  0  0  0  0  0  0
  -21.9970   -9.0560   20.4290 C   0  0  0  0  0  3  0  0  0  0  0  0
  -22.7230  -10.2440   20.2440 C   0  0  0  0  0  3  0  0  0  0  0  0
  -21.6580   -6.9580   21.4700 O   0  0  0  0  0  0  0  0  0  0  0  0
  -21.6200   -6.2130   22.6210 C   0  0  0  0  0  0  0  0  0  0  0  0
  -21.2150   -6.7680   23.8550 C   0  0  0  0  0  3  0  0  0  0  0  0
  -21.1230   -5.9510   24.9980 C   0  0  0  0  0  3  0  0  0  0  0  0
  -21.4270   -4.5790   24.9100 C   0  0  0  0  0  0  0  0  0  0  0  0
  -21.8270   -4.0230   23.6820 C   0  0  0  0  0  3  0  0  0  0  0  0
  -21.9200   -4.8390   22.5400 C   0  0  0  0  0  0  0  0  0  0  0  0
  -22.2850   -4.2940   21.3540 F   0  0  0  0  0  0  0  0  0  0  0  0
  -21.3320   -3.7900   26.0050 F   0  0  0  0  0  0  0  0  0  0  0  0
  -22.7430  -13.5970   21.0850 C   0  0  0  0  0  0  0  0  0  0  0  0
  -22.0100  -12.9060   21.9510 N   0  0  0  0  0  0  0  0  0  0  0  0
  -22.3070  -14.6160   20.5540 O   0  0  0  0  0  0  0  0  0  0  0  0
  -22.3750  -12.0790   22.4020 H   0  0  0  0  0  0  0  0  0  0  0  0
  -21.0710  -13.2090   22.1680 H   0  0  0  0  0  0  0  0  0  0  0  0
  -25.3780  -15.2570   20.2690 N   0  0  0  0  0  0  0  0  0  0  0  0
  -24.6110  -15.9130   20.3670 H   0  0  0  0  0  0  0  0  0  0  0  0
  -26.2340  -15.6940   19.9510 H   0  0  0  0  0  0  0  0  0  0  0  0
  -28.2280  -25.4700   20.9290 C   0  0  0  0  0  2  0  0  0  0  0  0
  -28.3910  -26.7030   20.2080 O   0  0  0  0  0  0  0  0  0  0  0  0
  -24.6040  -31.9060   23.2510 C   0  0  0  0  0  0  0  0  0  0  0  0
  -27.2460  -27.4660   20.1780 C   0  0  0  0  0  0  0  0  0  0  0  0
  -23.3990  -30.4930   21.6180 C   0  0  0  0  0  3  0  0  0  0  0  0
  -24.8540  -28.9640   20.1860 C   0  0  0  0  0  0  0  0  0  0  0  0
  -25.9230  -30.8580   21.4180 C   0  0  0  0  0  2  0  0  0  0  0  0
  -26.0110  -29.4900   20.7750 C   0  0  0  0  0  0  0  0  0  0  0  0
  -27.2140  -28.7490   20.7680 C   0  0  0  0  0  3  0  0  0  0  0  0
  -26.0800  -26.9610   19.5640 C   0  0  0  0  0  3  0  0  0  0  0  0
  -24.8820  -27.6990   19.5730 C   0  0  0  0  0  3  0  0  0  0  0  0
  -23.6050  -29.8150   20.2380 C   0  0  0  0  0  2  0  0  0  0  0  0
  -24.6610  -31.0970   22.1550 N   0  0  0  0  0  0  0  0  0  0  0  0
  -23.5180  -32.1980   23.7720 O   0  0  0  0  0  0  0  0  0  0  0  0
  -22.7530  -29.4700   22.5800 C   0  0  0  0  0  0  0  0  0  0  0  0
  -21.4290  -29.2840   22.4550 N   0  0  0  0  0  0  0  0  0  0  0  0
  -23.4390  -28.8450   23.3930 O   0  0  0  0  0  0  0  0  0  0  0  0
  -20.9370  -29.8420   21.7710 H   0  0  0  0  0  0  0  0  0  0  0  0
  -18.0560  -28.0900   22.9570 C   0  0  0  0  0  0  0  0  0  0  0  0
  -20.6140  -28.3450   23.2260 C   0  0  0  0  0  3  0  0  0  0  0  0
  -20.7140  -26.9150   22.6460 C   0  0  0  0  0  2  0  0  0  0  0  0
  -19.6100  -26.5950   21.6330 C   0  0  0  0  0  2  0  0  0  0  0  0
  -18.2300  -26.7420   22.2780 C   0  0  0  0  0  2  0  0  0  0  0  0
  -19.1760  -28.8500   23.3870 C   0  0  0  0  0  0  0  0  0  0  0  0
  -18.9600  -30.1130   23.9790 C   0  0  0  0  0  3  0  0  0  0  0  0
  -17.6560  -30.6140   24.1500 C   0  0  0  0  0  3  0  0  0  0  0  0
  -16.5500  -29.8510   23.7370 C   0  0  0  0  0  3  0  0  0  0  0  0
  -16.7510  -28.5900   23.1460 C   0  0  0  0  0  3  0  0  0  0  0  0
  -25.8920  -32.5280   23.8770 C   0  0  0  0  0  3  0  0  0  0  0  0
  -26.4100  -31.7550   25.1500 C   0  0  1  0  0  0  0  0  0  0  0  0
  -25.3160  -31.5160   26.2170 C   0  0  0  0  0  1  0  0  0  0  0  0
  -26.9920  -30.3770   24.7560 C   0  0  0  0  0  1  0  0  0  0  0  0
  -27.5600  -32.5480   25.8140 C   0  0  0  0  0  1  0  0  0  0  0  0
  -25.5870  -33.9260   24.2080 N   0  0  0  0  0  0  0  0  0  0  0  0
  -25.9150  -34.9780   23.4440 C   0  0  0  0  0  0  0  0  0  0  0  0
  -26.5810  -34.8720   22.4100 O   0  0  0  0  0  0  0  0  0  0  0  0
  -24.9980  -34.0820   25.0110 H   0  0  0  0  0  0  0  0  0  0  0  0
  -24.1800  -36.7630   23.0880 C   0  0  0  0  0  1  0  0  0  0  0  0
  -25.4230  -36.3640   23.8980 C   0  0  0  0  0  3  0  0  0  0  0  0
  -27.5640  -37.2490   24.7160 C   0  0  0  0  0  1  0  0  0  0  0  0
  -26.4510  -37.4230   23.7870 N   0  0  0  0  0  0  0  0  0  0  0  0
  -26.0420  -38.3370   23.9530 H   0  0  0  0  0  0  0  0  0  0  0  0
  1  4  2  0
  1  2  1  0
  2  6  2  0
  4  5  1  0
  5  8  1  0
  5  3  2  0
  6  3  1  0
  6 11  1  0
  7  4  1  0
  7  9  1  0
 10  9  1  0
 10 51  1  0
 10  8  1  0
 11 12  1  0
 13 14  1  0
 13 11  1  0
 15 14  1  0
 16 21  1  0
 17 18  1  0
 17 16  1  0
 19 18  1  0
 19 26  1  0
 19 20  1  0
 21 15  1  0
 21 20  1  0
 22 15  2  0
 23 24  2  0
 24 43  1  0
 25 24  1  0
 25 28  1  0
 26 23  1  0
 26 27  1  0
 27 25  2  0
 28 29  1  0
 29 30  2  0
 31 34  1  0
 31 30  1  0
 32 31  2  0
 33 32  1  0
 33 28  2  0
 34 35  1  0
 35 36  1  0
 36 37  2  0
 38 37  1  0
 38 42  1  0
 39 38  2  0
 40 35  2  0
 40 39  1  0
 41 40  1  0
 43 44  1  0
 44 47  1  0
 44 46  1  0
 45 43  2  0
 48 49  1  0
 48 23  1  0
 50 48  1  0
 52 51  1  0
 53 64  2  0
 54 52  1  0
 54 59  1  0
 55 63  1  0
 55 65  1  0
 56 62  1  0
 56 58  1  0
 57 63  1  0
 58 57  1  0
 59 58  2  0
 60 61  1  0
 60 54  2  0
 61 56  2  0
 62 55  1  0
 63 53  1  0
 65 67  2  0
 66 65  1  0
 68 66  1  0
 69 78  2  0
 69 74  1  0
 70 66  1  0
 70 74  1  0
 71 70  1  0
 72 73  1  0
 72 71  1  0
 73 69  1  0
 74 75  2  0
 75 76  1  0
 77 76  2  0
 78 77  1  0
 79 53  1  0
 79 84  1  0
 79 80  1  0
 80 83  1  1
 80 81  1  0
 82 80  1  0
 84 87  1  0
 85 89  1  0
 85 84  1  0
 86 85  2  0
 89 88  1  0
 91 89  1  0
 91 92  1  0
 91 90  1  0
M  ISO  4  14 100  15 100  51 101  52 101
M  END
>  <TORSDO>  (34) 
F 20

>  <SCORE>  (34) 
-14.153

>  <name>  (34) 
33

>  <ligand_id>  (34) 
33

>  <original_smiles>  (34) 
[H]c1c([H])c([H])c2c(c1[H])C([H])([H])C([H])([H])C([H])([H])C2([H])N([H])C(=O)C1([H])N(C(=O)C([H])(N([H])C(=O)C([H])(N([H])C([H])([H])[H])C([H])([H])[H])C(C([H])([H])[H])(C([H])([H])[H])C([H])([H])[H])C([H])([H])c2c([H])c(OC([H])([H])C3([H])C([H])([H])c4c([H])c(N([H])C([H])([H])C([H])([H])C(=O)N5C([H])([H])C([H])([H])C([H])([H])C([H])(n6nc(-c7c([H])c([H])c(Oc8c([H])c([H])c(F)c([H])c8F)c([H])c7[H])c(C(=O)N([H])[H])c6N([H])[H])C5([H])[H])c([H])c([H])c4C([H])([H])C3([H])[H])c([H])c([H])c2C1([H])[H]

>  <smiles>  (34) 
[H]c1c([H])c([H])c2c(c1[H])C([H])([H])C([H])([H])C([H])([H])C2([H])N([H])C(=O)C1([H])N(C(=O)C([H])(N([H])C(=O)C([H])(N([H])C([H])([H])[H])C([H])([H])[H])C(C([H])([H])[H])(C([H])([H])[H])C([H])([H])[H])C([H])([H])c2c([H])c(OC([H])([H])C3([H])C([H])([H])c4c([H])c(N([H])C([H])([H])C([H])([H])C(=O)N5C([H])([H])C([H])([H])C([H])([H])C([H])(n6nc(-c7c([H])c([H])c(Oc8c([H])c([H])c(F)c([H])c8F)c([H])c7[H])c(C(=O)N([H])[H])c6N([H])[H])C5([H])[H])c([H])c([H])c4C([H])([H])C3([H])[H])c([H])c([H])c2C1([H])[H]

$$$$
34:0:0
     RDKit          3D

 96106  0  0  1  0  0  0  0  0999 V2000
  -31.6070  -24.7490   18.9460 C   0  0  0  0  0  2  0  0  0  0  0  0
  -30.9100  -24.8930   20.3140 C   0  0  0  0  0  2  0  0  0  0  0  0
  -30.3060  -20.4320   18.5180 C   0  0  0  0  0  2  0  0  0  0  0  0
  -28.6130  -25.3250   18.0880 C   0  0  0  0  0  2  0  0  0  0  0  0
  -31.2650  -23.4400   18.2010 C   0  0  0  0  0  2  0  0  0  0  0  0
  -29.6300  -21.5520   17.7010 C   0  0  0  0  0  2  0  0  0  0  0  0
  -28.8240  -23.9130   17.5030 C   0  0  0  0  0  2  0  0  0  0  0  0
  -30.0440  -21.8400   20.6070 C   0  0  0  0  0  2  0  0  0  0  0  0
  -29.4420  -24.4010   20.3500 C   0  0  0  0  0  3  0  0  0  0  0  0
  -29.3290  -22.9550   19.7820 C   0  0  0  0  0  3  0  0  0  0  0  0
  -29.8410  -20.4260   19.9900 C   0  0  0  0  0  3  0  0  0  0  0  0
  -28.4170  -25.3260   19.6200 C   0  0  0  0  0  3  0  0  0  0  0  0
  -29.7810  -22.9760   18.3000 C   0  0  2  0  0  0  0  0  0  0  0  0
  -30.5240  -19.3600   20.7790 N   0  0  0  0  0  4  0  0  0  0  0  0
  -30.3260  -19.5400   21.7510 H   0  0  0  0  0  0  0  0  0  0  0  0
  -31.5200  -19.4400   20.6590 H   0  0  0  0  0  0  0  0  0  0  0  0
  -30.1030  -17.9560   20.4970 C   0  0  0  0  0  2  0  0  0  0  0  0
  -30.6880  -16.9360   21.5110 C   0  0  0  0  0  2  0  0  0  0  0  0
  -30.0350  -15.5220   21.4960 C   0  0  0  0  0  2  0  0  0  0  0  0
  -30.6580  -14.4470   20.5700 C   0  0  0  0  0  0  0  0  0  0  0  0
  -30.3610  -12.3270   19.3160 C   0  0  0  0  0  2  0  0  0  0  0  0
  -29.4170  -12.5510   18.1170 C   0  0  0  0  0  2  0  0  0  0  0  0
  -27.9390  -12.4190   18.5390 C   0  0  0  0  0  2  0  0  0  0  0  0
  -27.6080  -13.2400   19.8150 C   0  0  0  0  0  3  0  0  0  0  0  0
  -28.6540  -12.9690   20.9190 C   0  0  0  0  0  2  0  0  0  0  0  0
  -29.9840  -13.2810   20.3700 N   0  0  0  0  0  0  0  0  0  0  0  0
  -31.7330  -14.6880   20.0120 O   0  0  0  0  0  0  0  0  0  0  0  0
  -25.2020  -13.8710   20.4830 C   0  0  0  0  0  0  0  0  0  0  0  0
  -24.1250  -13.1090   20.8480 C   0  0  0  0  0  0  0  0  0  0  0  0
  -24.5790  -11.7550   20.8380 C   0  0  0  0  0  0  0  0  0  0  0  0
  -26.2460  -12.9810   20.2790 N   0  0  0  0  0  0  0  0  0  0  0  0
  -25.8720  -11.7030   20.5460 N   0  0  0  0  0  0  0  0  0  0  0  0
  -23.8430  -10.4980   21.0340 C   0  0  0  0  0  0  0  0  0  0  0  0
  -24.2740   -9.5280   21.9650 C   0  0  0  0  0  3  0  0  0  0  0  0
  -23.5400   -8.3370   22.1500 C   0  0  0  0  0  3  0  0  0  0  0  0
  -22.3610   -8.1070   21.4020 C   0  0  0  0  0  0  0  0  0  0  0  0
  -21.9490   -9.0660   20.4590 C   0  0  0  0  0  3  0  0  0  0  0  0
  -22.6840  -10.2480   20.2730 C   0  0  0  0  0  3  0  0  0  0  0  0
  -21.5980   -6.9680   21.4940 O   0  0  0  0  0  0  0  0  0  0  0  0
  -21.5650   -6.2160   22.6410 C   0  0  0  0  0  0  0  0  0  0  0  0
  -21.1810   -6.7670   23.8840 C   0  0  0  0  0  3  0  0  0  0  0  0
  -21.0940   -5.9420   25.0230 C   0  0  0  0  0  3  0  0  0  0  0  0
  -21.3810   -4.5680   24.9220 C   0  0  0  0  0  0  0  0  0  0  0  0
  -21.7580   -4.0160   23.6850 C   0  0  0  0  0  3  0  0  0  0  0  0
  -21.8470   -4.8380   22.5470 C   0  0  0  0  0  0  0  0  0  0  0  0
  -22.1910   -4.2980   21.3540 F   0  0  0  0  0  0  0  0  0  0  0  0
  -21.2890   -3.7740   26.0140 F   0  0  0  0  0  0  0  0  0  0  0  0
  -22.7270  -13.5960   21.1000 C   0  0  0  0  0  0  0  0  0  0  0  0
  -21.9860  -12.9140   21.9660 N   0  0  0  0  0  0  0  0  0  0  0  0
  -22.2990  -14.6170   20.5620 O   0  0  0  0  0  0  0  0  0  0  0  0
  -22.3440  -12.0890   22.4240 H   0  0  0  0  0  0  0  0  0  0  0  0
  -21.0480  -13.2250   22.1790 H   0  0  0  0  0  0  0  0  0  0  0  0
  -25.3750  -15.2390   20.2920 N   0  0  0  0  0  0  0  0  0  0  0  0
  -24.6060  -15.8950   20.3770 H   0  0  0  0  0  0  0  0  0  0  0  0
  -26.2320  -15.6710   19.9730 H   0  0  0  0  0  0  0  0  0  0  0  0
  -28.4050  -26.6840   20.1160 O   0  0  0  0  0  0  0  0  0  0  0  0
  -24.6390  -31.8950   23.2260 C   0  0  0  0  0  0  0  0  0  0  0  0
  -27.2220  -27.4150   20.1030 C   0  0  0  0  0  0  0  0  0  0  0  0
  -23.4070  -30.4940   21.6070 C   0  0  0  0  0  3  0  0  0  0  0  0
  -24.8320  -28.9530   20.1600 C   0  0  0  0  0  0  0  0  0  0  0  0
  -25.9360  -30.8300   21.3830 C   0  0  0  0  0  2  0  0  0  0  0  0
  -26.0040  -29.4600   20.7350 C   0  0  0  0  0  0  0  0  0  0  0  0
  -27.1970  -28.6980   20.7060 C   0  0  0  0  0  3  0  0  0  0  0  0
  -26.0210  -26.9340   19.5220 C   0  0  0  0  0  3  0  0  0  0  0  0
  -24.8360  -27.6890   19.5540 C   0  0  0  0  0  3  0  0  0  0  0  0
  -23.5950  -29.8190   20.2240 C   0  0  0  0  0  2  0  0  0  0  0  0
  -24.6800  -31.0840   22.1310 N   0  0  0  0  0  0  0  0  0  0  0  0
  -23.5620  -32.1970   23.7560 O   0  0  0  0  0  0  0  0  0  0  0  0
  -22.7630  -29.4730   22.5740 C   0  0  0  0  0  0  0  0  0  0  0  0
  -21.4380  -29.2890   22.4590 N   0  0  0  0  0  0  0  0  0  0  0  0
  -23.4530  -28.8480   23.3850 O   0  0  0  0  0  0  0  0  0  0  0  0
  -20.9410  -29.8450   21.7760 H   0  0  0  0  0  0  0  0  0  0  0  0
  -18.0700  -28.0840   22.9740 C   0  0  0  0  0  0  0  0  0  0  0  0
  -20.6270  -28.3530   23.2370 C   0  0  0  0  0  3  0  0  0  0  0  0
  -20.7330  -26.9190   22.6670 C   0  0  0  0  0  2  0  0  0  0  0  0
  -19.6300  -26.5870   21.6590 C   0  0  0  0  0  2  0  0  0  0  0  0
  -18.2480  -26.7320   22.3060 C   0  0  0  0  0  2  0  0  0  0  0  0
  -19.1870  -28.8520   23.3970 C   0  0  0  0  0  0  0  0  0  0  0  0
  -18.9660  -30.1190   23.9800 C   0  0  0  0  0  3  0  0  0  0  0  0
  -17.6600  -30.6170   24.1460 C   0  0  0  0  0  3  0  0  0  0  0  0
  -16.5580  -29.8460   23.7410 C   0  0  0  0  0  3  0  0  0  0  0  0
  -16.7630  -28.5820   23.1600 C   0  0  0  0  0  3  0  0  0  0  0  0
  -25.9370  -32.5110   23.8360 C   0  0  0  0  0  3  0  0  0  0  0  0
  -26.4770  -31.7220   25.0930 C   0  0  1  0  0  0  0  0  0  0  0  0
  -25.4010  -31.4720   26.1760 C   0  0  0  0  0  1  0  0  0  0  0  0
  -27.0510  -30.3490   24.6730 C   0  0  0  0  0  1  0  0  0  0  0  0
  -27.6390  -32.5060   25.7450 C   0  0  0  0  0  1  0  0  0  0  0  0
  -25.6380  -33.9050   24.1890 N   0  0  0  0  0  0  0  0  0  0  0  0
  -25.9460  -34.9630   23.4280 C   0  0  0  0  0  0  0  0  0  0  0  0
  -26.5850  -34.8690   22.3770 O   0  0  0  0  0  0  0  0  0  0  0  0
  -25.0680  -34.0520   25.0080 H   0  0  0  0  0  0  0  0  0  0  0  0
  -24.1960  -36.7470   23.1420 C   0  0  0  0  0  1  0  0  0  0  0  0
  -25.4660  -36.3450   23.9090 C   0  0  0  0  0  3  0  0  0  0  0  0
  -27.6260  -37.2340   24.6690 C   0  0  0  0  0  1  0  0  0  0  0  0
  -26.4900  -37.4050   23.7670 N   0  0  0  0  0  0  0  0  0  0  0  0
  -26.0840  -38.3220   23.9370 H   0  0  0  0  0  0  0  0  0  0  0  0
  1  2  1  0
  3 11  1  0
  4 12  1  0
 13  5  1  1
  5  1  1  0
  6 13  1  0
  6  3  1  0
  7  4  1  0
  9  2  1  0
 10  9  1  0
 10  8  1  0
 11  8  1  0
 11 14  1  0
 12 56  1  0
 12  9  1  0
 13  7  1  0
 13 10  1  0
 14 15  1  0
 16 14  1  0
 17 14  1  0
 17 18  1  0
 19 18  1  0
 20 19  1  0
 21 26  1  0
 22 23  1  0
 22 21  1  0
 24 23  1  0
 24 31  1  0
 24 25  1  0
 26 20  1  0
 26 25  1  0
 27 20  2  0
 28 29  2  0
 29 48  1  0
 30 29  1  0
 30 33  1  0
 31 28  1  0
 31 32  1  0
 32 30  2  0
 33 34  1  0
 34 35  2  0
 36 39  1  0
 36 35  1  0
 37 36  2  0
 38 37  1  0
 38 33  2  0
 39 40  1  0
 40 41  1  0
 41 42  2  0
 43 42  1  0
 43 47  1  0
 44 43  2  0
 45 40  2  0
 45 44  1  0
 46 45  1  0
 48 49  1  0
 49 52  1  0
 49 51  1  0
 50 48  2  0
 53 54  1  0
 53 28  1  0
 55 53  1  0
 57 68  2  0
 58 56  1  0
 58 63  1  0
 59 67  1  0
 59 69  1  0
 60 66  1  0
 60 62  1  0
 61 67  1  0
 62 61  1  0
 63 62  2  0
 64 65  1  0
 64 58  2  0
 65 60  2  0
 66 59  1  0
 67 57  1  0
 69 71  2  0
 70 69  1  0
 72 70  1  0
 73 82  2  0
 73 78  1  0
 74 70  1  0
 74 78  1  0
 75 74  1  0
 76 77  1  0
 76 75  1  0
 77 73  1  0
 78 79  2  0
 79 80  1  0
 81 80  2  0
 82 81  1  0
 83 57  1  0
 83 88  1  0
 83 84  1  0
 84 87  1  1
 84 85  1  0
 86 84  1  0
 88 91  1  0
 89 93  1  0
 89 88  1  0
 90 89  2  0
 93 92  1  0
 95 93  1  0
 95 96  1  0
 95 94  1  0
M  ISO  4  12 101  19 100  20 100  56 101
M  END
>  <TORSDO>  (35) 
F 20

>  <SCORE>  (35) 
-13.883

>  <name>  (35) 
34

>  <ligand_id>  (35) 
34

>  <original_smiles>  (35) 
[H]c1c([H])c([H])c2c(c1[H])C([H])([H])C([H])([H])C([H])([H])C2([H])N([H])C(=O)C1([H])N(C(=O)C([H])(N([H])C(=O)C([H])(N([H])C([H])([H])[H])C([H])([H])[H])C(C([H])([H])[H])(C([H])([H])[H])C([H])([H])[H])C([H])([H])c2c([H])c(OC3([H])C([H])([H])C([H])([H])C45C([H])([H])C([H])([H])C([H])([H])C3([H])C4([H])C([H])([H])C([H])([N+]([H])([H])C([H])([H])C([H])([H])C([H])([H])C(=O)N3C([H])([H])C([H])([H])C([H])([H])C([H])(n4nc(-c6c([H])c([H])c(Oc7c([H])c([H])c(F)c([H])c7F)c([H])c6[H])c(C(=O)N([H])[H])c4N([H])[H])C3([H])[H])C([H])([H])C5([H])[H])c([H])c([H])c2C1([H])[H]

>  <smiles>  (35) 
[H]c1c([H])c([H])c2c(c1[H])C([H])([H])C([H])([H])C([H])([H])C2([H])N([H])C(=O)C1([H])N(C(=O)C([H])(N([H])C(=O)C([H])(N([H])C([H])([H])[H])C([H])([H])[H])C(C([H])([H])[H])(C([H])([H])[H])C([H])([H])[H])C([H])([H])c2c([H])c(OC3([H])C([H])([H])C([H])([H])C45C([H])([H])C([H])([H])C([H])([H])C3([H])C4([H])C([H])([H])C([H])([N+]([H])([H])C([H])([H])C([H])([H])C([H])([H])C(=O)N3C([H])([H])C([H])([H])C([H])([H])C([H])(n4nc(-c6c([H])c([H])c(Oc7c([H])c([H])c(F)c([H])c7F)c([H])c6[H])c(C(=O)N([H])[H])c4N([H])[H])C3([H])[H])C([H])([H])C5([H])[H])c([H])c([H])c2C1([H])[H]

$$$$
35:0:0
     RDKit          3D

 94103  0  0  1  0  0  0  0  0999 V2000
  -30.8840  -24.1400   19.4710 C   0  0  0  0  0  0  0  0  0  0  0  0
  -29.8640  -25.0910   18.8530 C   0  0  0  0  0  2  0  0  0  0  0  0
  -30.4680  -22.6730   19.6210 C   0  0  0  0  0  2  0  0  0  0  0  0
  -28.2480  -23.7140   20.3540 C   0  0  0  0  0  2  0  0  0  0  0  0
  -28.4750  -25.0970   19.5410 C   0  0  0  0  0  3  0  0  0  0  0  0
  -28.9430  -22.3790   19.7440 C   0  0  1  0  0  0  0  0  0  0  0  0
  -28.3320  -22.1220   18.3440 C   0  0  0  0  0  1  0  0  0  0  0  0
  -32.0310  -24.5350   19.8390 N   0  0  0  0  0  0  0  0  0  0  0  0
  -32.1620  -25.5300   19.6790 H   0  0  0  0  0  0  0  0  0  0  0  0
  -28.3500  -26.4400   20.1950 O   0  0  0  0  0  0  0  0  0  0  0  0
  -24.6340  -31.8690   23.2030 C   0  0  0  0  0  0  0  0  0  0  0  0
  -27.2170  -27.2760   20.1270 C   0  0  0  0  0  0  0  0  0  0  0  0
  -23.4180  -30.4670   21.5790 C   0  0  0  0  0  3  0  0  0  0  0  0
  -24.8560  -28.9140   20.1380 C   0  0  0  0  0  0  0  0  0  0  0  0
  -25.9610  -30.7700   21.3860 C   0  0  0  0  0  2  0  0  0  0  0  0
  -26.0300  -29.3930   20.7320 C   0  0  0  0  0  0  0  0  0  0  0  0
  -27.2080  -28.5840   20.7180 C   0  0  0  0  0  3  0  0  0  0  0  0
  -26.0110  -26.8520   19.5230 C   0  0  0  0  0  3  0  0  0  0  0  0
  -24.8510  -27.6510   19.5260 C   0  0  0  0  0  3  0  0  0  0  0  0
  -23.6220  -29.7900   20.1980 C   0  0  0  0  0  2  0  0  0  0  0  0
  -24.6910  -31.0500   22.1140 N   0  0  0  0  0  0  0  0  0  0  0  0
  -23.5480  -32.1770   23.7150 O   0  0  0  0  0  0  0  0  0  0  0  0
  -22.7600  -29.4500   22.5430 C   0  0  0  0  0  0  0  0  0  0  0  0
  -21.4310  -29.2780   22.4270 N   0  0  0  0  0  0  0  0  0  0  0  0
  -23.4410  -28.8200   23.3560 O   0  0  0  0  0  0  0  0  0  0  0  0
  -20.9390  -29.8380   21.7450 H   0  0  0  0  0  0  0  0  0  0  0  0
  -18.0540  -28.0840   22.9430 C   0  0  0  0  0  0  0  0  0  0  0  0
  -20.6150  -28.3400   23.2020 C   0  0  0  0  0  3  0  0  0  0  0  0
  -20.7120  -26.9100   22.6220 C   0  0  0  0  0  2  0  0  0  0  0  0
  -19.6050  -26.5910   21.6120 C   0  0  0  0  0  2  0  0  0  0  0  0
  -18.2270  -26.7360   22.2640 C   0  0  0  0  0  2  0  0  0  0  0  0
  -19.1770  -28.8440   23.3700 C   0  0  0  0  0  0  0  0  0  0  0  0
  -18.9600  -30.1050   23.9660 C   0  0  0  0  0  3  0  0  0  0  0  0
  -17.6570  -30.6070   24.1380 C   0  0  0  0  0  3  0  0  0  0  0  0
  -16.5500  -29.8440   23.7280 C   0  0  0  0  0  3  0  0  0  0  0  0
  -16.7500  -28.5830   23.1370 C   0  0  0  0  0  3  0  0  0  0  0  0
  -25.9210  -32.4870   23.8330 C   0  0  0  0  0  3  0  0  0  0  0  0
  -25.6150  -33.8830   24.1820 N   0  0  0  0  0  0  0  0  0  0  0  0
  -25.9330  -34.9420   23.4260 C   0  0  0  0  0  0  0  0  0  0  0  0
  -26.5860  -34.8480   22.3840 O   0  0  0  0  0  0  0  0  0  0  0  0
  -25.0290  -34.0290   24.9910 H   0  0  0  0  0  0  0  0  0  0  0  0
  -24.1900  -36.7320   23.1240 C   0  0  0  0  0  1  0  0  0  0  0  0
  -25.4500  -36.3270   23.9040 C   0  0  0  0  0  3  0  0  0  0  0  0
  -27.6010  -37.2140   24.6900 C   0  0  0  0  0  1  0  0  0  0  0  0
  -26.4770  -37.3840   23.7730 N   0  0  0  0  0  0  0  0  0  0  0  0
  -26.0710  -38.3020   23.9360 H   0  0  0  0  0  0  0  0  0  0  0  0
  -26.4410  -31.7040   25.1020 C   0  0  1  0  0  0  0  0  0  0  0  0
  -25.3510  -31.4650   26.1720 C   0  0  0  0  0  1  0  0  0  0  0  0
  -27.0170  -30.3250   24.7000 C   0  0  0  0  0  1  0  0  0  0  0  0
  -27.5980  -32.4900   25.7630 C   0  0  0  0  0  1  0  0  0  0  0  0
  -28.7570  -20.9900   20.5760 C   0  0  0  0  0  2  0  0  0  0  0  0
  -29.9440  -17.0750   20.5070 C   0  0  0  0  0  0  0  0  0  0  0  0
  -31.1690  -17.8850   20.1070 C   0  0  0  0  0  0  0  0  0  0  0  0
  -28.8830  -18.2080   20.7370 C   0  0  0  0  0  2  0  0  0  0  0  0
  -30.8750  -19.3970   20.0930 C   0  0  0  0  0  2  0  0  0  0  0  0
  -29.3440  -19.5680   20.0540 C   0  0  0  0  0  3  0  0  0  0  0  0
  -29.6830  -15.7890   20.6740 N   0  0  0  0  0  0  0  0  0  0  0  0
  -32.2990  -17.4520   19.8680 O   0  0  0  0  0  0  0  0  0  0  0  0
  -30.5610  -14.6970   20.3810 C   0  0  0  0  0  0  0  0  0  0  0  0
  -30.3960  -12.4220   19.3710 C   0  0  0  0  0  2  0  0  0  0  0  0
  -29.4610  -12.5190   18.1440 C   0  0  0  0  0  2  0  0  0  0  0  0
  -27.9890  -12.3350   18.5640 C   0  0  0  0  0  2  0  0  0  0  0  0
  -27.6090  -13.2290   19.7730 C   0  0  0  0  0  3  0  0  0  0  0  0
  -28.6560  -13.1130   20.9010 C   0  0  0  0  0  2  0  0  0  0  0  0
  -29.9680  -13.4580   20.3360 N   0  0  0  0  0  0  0  0  0  0  0  0
  -31.7370  -14.7880   20.0250 O   0  0  0  0  0  0  0  0  0  0  0  0
  -25.2130  -13.8300   20.4770 C   0  0  0  0  0  0  0  0  0  0  0  0
  -24.1440  -13.0590   20.8460 C   0  0  0  0  0  0  0  0  0  0  0  0
  -24.6110  -11.7080   20.8320 C   0  0  0  0  0  0  0  0  0  0  0  0
  -26.2590  -12.9490   20.2570 N   0  0  0  0  0  0  0  0  0  0  0  0
  -25.9030  -11.6680   20.5330 N   0  0  0  0  0  0  0  0  0  0  0  0
  -23.8870  -10.4460   21.0310 C   0  0  0  0  0  0  0  0  0  0  0  0
  -24.3260   -9.4800   21.9640 C   0  0  0  0  0  3  0  0  0  0  0  0
  -23.6030   -8.2820   22.1480 C   0  0  0  0  0  3  0  0  0  0  0  0
  -22.4250   -8.0400   21.4030 C   0  0  0  0  0  0  0  0  0  0  0  0
  -22.0050   -8.9960   20.4600 C   0  0  0  0  0  3  0  0  0  0  0  0
  -22.7290  -10.1850   20.2730 C   0  0  0  0  0  3  0  0  0  0  0  0
  -21.6730   -6.8950   21.4980 O   0  0  0  0  0  0  0  0  0  0  0  0
  -21.6470   -6.1450   22.6470 C   0  0  0  0  0  0  0  0  0  0  0  0
  -21.2640   -6.6970   23.8880 C   0  0  0  0  0  3  0  0  0  0  0  0
  -21.1820   -5.8720   25.0290 C   0  0  0  0  0  3  0  0  0  0  0  0
  -21.4740   -4.4990   24.9290 C   0  0  0  0  0  0  0  0  0  0  0  0
  -21.8540   -3.9490   23.6930 C   0  0  0  0  0  3  0  0  0  0  0  0
  -21.9380   -4.7700   22.5550 C   0  0  0  0  0  0  0  0  0  0  0  0
  -22.2780   -4.2300   21.3600 F   0  0  0  0  0  0  0  0  0  0  0  0
  -21.3920   -3.7040   26.0220 F   0  0  0  0  0  0  0  0  0  0  0  0
  -22.7450  -13.5350   21.1050 C   0  0  0  0  0  0  0  0  0  0  0  0
  -22.0150  -12.8450   21.9750 N   0  0  0  0  0  0  0  0  0  0  0  0
  -22.3070  -14.5530   20.5710 O   0  0  0  0  0  0  0  0  0  0  0  0
  -22.3800  -12.0210   22.4270 H   0  0  0  0  0  0  0  0  0  0  0  0
  -21.0730  -13.1440   22.1890 H   0  0  0  0  0  0  0  0  0  0  0  0
  -25.3870  -15.1980   20.2870 N   0  0  0  0  0  0  0  0  0  0  0  0
  -24.6370  -15.8730   20.3850 H   0  0  0  0  0  0  0  0  0  0  0  0
  -26.2690  -15.6150   20.0120 H   0  0  0  0  0  0  0  0  0  0  0  0
  1  3  1  0
  1  8  2  0
  2  1  1  0
  2  5  1  0
  3  6  1  0
  5 10  1  0
  5  4  1  0
  6  7  1  6
  6  4  1  0
  6 51  1  0
  9  8  1  0
 11 22  2  0
 12 10  1  0
 12 17  1  0
 13 21  1  0
 13 23  1  0
 14 20  1  0
 14 16  1  0
 15 21  1  0
 16 15  1  0
 17 16  2  0
 18 19  1  0
 18 12  2  0
 19 14  2  0
 20 13  1  0
 21 11  1  0
 23 25  2  0
 24 23  1  0
 26 24  1  0
 27 36  2  0
 27 32  1  0
 28 24  1  0
 28 32  1  0
 29 28  1  0
 30 31  1  0
 30 29  1  0
 31 27  1  0
 32 33  2  0
 33 34  1  0
 35 34  2  0
 36 35  1  0
 37 11  1  0
 37 38  1  0
 37 47  1  0
 38 41  1  0
 39 43  1  0
 39 38  1  0
 40 39  2  0
 43 42  1  0
 45 43  1  0
 45 46  1  0
 45 44  1  0
 47 50  1  1
 47 48  1  0
 49 47  1  0
 52 57  2  0
 52 54  1  0
 53 52  1  0
 55 53  1  0
 56 55  1  0
 56 51  1  0
 56 54  1  0
 58 53  2  0
 59 57  1  0
 60 65  1  0
 61 62  1  0
 61 60  1  0
 63 62  1  0
 63 70  1  0
 63 64  1  0
 65 59  1  0
 65 64  1  0
 66 59  2  0
 67 68  2  0
 68 87  1  0
 69 68  1  0
 69 72  1  0
 70 67  1  0
 70 71  1  0
 71 69  2  0
 72 73  1  0
 73 74  2  0
 75 78  1  0
 75 74  1  0
 76 75  2  0
 77 76  1  0
 77 72  2  0
 78 79  1  0
 79 80  1  0
 80 81  2  0
 82 81  1  0
 82 86  1  0
 83 82  2  0
 84 79  2  0
 84 83  1  0
 85 84  1  0
 87 88  1  0
 88 91  1  0
 88 90  1  0
 89 87  2  0
 92 93  1  0
 92 67  1  0
 94 92  1  0
M  ISO  4   5 101  10 101  57 100  59 100
M  END
>  <TORSDO>  (36) 
F 18

>  <SCORE>  (36) 
-14.768

>  <name>  (36) 
35

>  <ligand_id>  (36) 
35

>  <original_smiles>  (36) 
[H]N=C1C([H])([H])C([H])(Oc2c([H])c([H])c3c(c2[H])C([H])([H])N(C(=O)C([H])(N([H])C(=O)C([H])(N([H])C([H])([H])[H])C([H])([H])[H])C(C([H])([H])[H])(C([H])([H])[H])C([H])([H])[H])C([H])(C(=O)N([H])C2([H])c4c([H])c([H])c([H])c([H])c4C([H])([H])C([H])([H])C2([H])[H])C3([H])[H])C([H])([H])C(C([H])([H])[H])(C([H])([H])C2([H])C([H])([H])C(=O)C(=NC(=O)N3C([H])([H])C([H])([H])C([H])([H])C([H])(n4nc(-c5c([H])c([H])c(Oc6c([H])c([H])c(F)c([H])c6F)c([H])c5[H])c(C(=O)N([H])[H])c4N([H])[H])C3([H])[H])C2([H])[H])C1([H])[H]

>  <smiles>  (36) 
[H]N=C1C([H])([H])C([H])(Oc2c([H])c([H])c3c(c2[H])C([H])([H])N(C(=O)C([H])(N([H])C(=O)C([H])(N([H])C([H])([H])[H])C([H])([H])[H])C(C([H])([H])[H])(C([H])([H])[H])C([H])([H])[H])C([H])(C(=O)N([H])C2([H])c4c([H])c([H])c([H])c([H])c4C([H])([H])C([H])([H])C2([H])[H])C3([H])[H])C([H])([H])C(C([H])([H])[H])(C([H])([H])C2([H])C([H])([H])C(=O)C(=NC(=O)N3C([H])([H])C([H])([H])C([H])([H])C([H])(n4nc(-c5c([H])c([H])c(Oc6c([H])c([H])c(F)c([H])c6F)c([H])c5[H])c(C(=O)N([H])[H])c4N([H])[H])C3([H])[H])C2([H])[H])C1([H])[H]

$$$$
36:0:0
     RDKit          3D

 92100  0  0  1  0  0  0  0  0999 V2000
  -28.9140  -23.8690   22.1150 C   0  0  0  0  0  3  0  0  0  0  0  0
  -28.5750  -25.1910   21.7850 C   0  0  0  0  0  3  0  0  0  0  0  0
  -29.0000  -23.3980   19.7450 C   0  0  0  0  0  3  0  0  0  0  0  0
  -29.1650  -22.9550   21.0720 C   0  0  0  0  0  0  0  0  0  0  0  0
  -28.5040  -25.5450   20.4270 C   0  0  0  0  0  0  0  0  0  0  0  0
  -28.6880  -24.6650   19.4210 N   0  0  0  0  0  0  0  0  0  0  0  0
  -28.4110  -26.8490   20.0330 O   0  0  0  0  0  0  0  0  0  0  0  0
  -24.5730  -31.9050   23.2510 C   0  0  0  0  0  0  0  0  0  0  0  0
  -27.2120  -27.5000   20.1410 C   0  0  0  0  0  0  0  0  0  0  0  0
  -23.3600  -30.4930   21.6220 C   0  0  0  0  0  3  0  0  0  0  0  0
  -24.8030  -28.9570   20.1900 C   0  0  0  0  0  0  0  0  0  0  0  0
  -25.8740  -30.8700   21.3990 C   0  0  0  0  0  2  0  0  0  0  0  0
  -25.9590  -29.4970   20.7670 C   0  0  0  0  0  0  0  0  0  0  0  0
  -27.1680  -28.7710   20.7470 C   0  0  0  0  0  3  0  0  0  0  0  0
  -26.0420  -26.9580   19.5670 C   0  0  0  0  0  3  0  0  0  0  0  0
  -24.8360  -27.6840   19.5940 C   0  0  0  0  0  3  0  0  0  0  0  0
  -23.5570  -29.8090   20.2430 C   0  0  0  0  0  2  0  0  0  0  0  0
  -24.6220  -31.0980   22.1540 N   0  0  0  0  0  0  0  0  0  0  0  0
  -23.4920  -32.1980   23.7820 O   0  0  0  0  0  0  0  0  0  0  0  0
  -22.7190  -29.4710   22.5860 C   0  0  0  0  0  0  0  0  0  0  0  0
  -21.3950  -29.2810   22.4600 N   0  0  0  0  0  0  0  0  0  0  0  0
  -23.4080  -28.8510   23.4000 O   0  0  0  0  0  0  0  0  0  0  0  0
  -20.9040  -29.8250   21.7640 H   0  0  0  0  0  0  0  0  0  0  0  0
  -18.0290  -28.0760   22.9570 C   0  0  0  0  0  0  0  0  0  0  0  0
  -20.5840  -28.3400   23.2290 C   0  0  0  0  0  3  0  0  0  0  0  0
  -20.6940  -26.9100   22.6490 C   0  0  0  0  0  2  0  0  0  0  0  0
  -19.5910  -26.5840   21.6360 C   0  0  0  0  0  2  0  0  0  0  0  0
  -18.2100  -26.7280   22.2810 C   0  0  0  0  0  2  0  0  0  0  0  0
  -19.1440  -28.8410   23.3880 C   0  0  0  0  0  0  0  0  0  0  0  0
  -18.9220  -30.1040   23.9760 C   0  0  0  0  0  3  0  0  0  0  0  0
  -17.6160  -30.6020   24.1400 C   0  0  0  0  0  3  0  0  0  0  0  0
  -16.5140  -29.8330   23.7240 C   0  0  0  0  0  3  0  0  0  0  0  0
  -16.7220  -28.5720   23.1390 C   0  0  0  0  0  3  0  0  0  0  0  0
  -25.8650  -32.5260   23.8700 C   0  0  0  0  0  3  0  0  0  0  0  0
  -25.5620  -33.9220   24.2090 N   0  0  0  0  0  0  0  0  0  0  0  0
  -25.8880  -34.9720   23.4450 C   0  0  0  0  0  0  0  0  0  0  0  0
  -26.5480  -34.8660   22.4070 O   0  0  0  0  0  0  0  0  0  0  0  0
  -24.9600  -34.0720   25.0050 H   0  0  0  0  0  0  0  0  0  0  0  0
  -24.1500  -36.7570   23.1040 C   0  0  0  0  0  1  0  0  0  0  0  0
  -25.4020  -36.3600   23.9030 C   0  0  0  0  0  3  0  0  0  0  0  0
  -27.5450  -37.2490   24.7060 C   0  0  0  0  0  1  0  0  0  0  0  0
  -26.4320  -37.4130   23.7750 N   0  0  0  0  0  0  0  0  0  0  0  0
  -26.0290  -38.3340   23.9230 H   0  0  0  0  0  0  0  0  0  0  0  0
  -26.3870  -31.7460   25.1380 C   0  0  1  0  0  0  0  0  0  0  0  0
  -25.2970  -31.5020   26.2090 C   0  0  0  0  0  1  0  0  0  0  0  0
  -26.9640  -30.3690   24.7340 C   0  0  0  0  0  1  0  0  0  0  0  0
  -27.5440  -32.5320   25.7960 C   0  0  0  0  0  1  0  0  0  0  0  0
  -29.8020  -21.6050   21.3680 C   0  0  0  0  0  2  0  0  0  0  0  0
  -28.9900  -20.4080   21.0520 N   0  0  0  0  0  4  0  0  0  0  0  0
  -28.3500  -20.5930   20.2980 H   0  0  0  0  0  0  0  0  0  0  0  0
  -28.4480  -20.1800   21.8700 H   0  0  0  0  0  0  0  0  0  0  0  0
  -29.8630  -19.2690   20.6870 C   0  0  0  0  0  2  0  0  0  0  0  0
  -29.2510  -17.8640   20.8810 C   0  0  0  0  0  2  0  0  0  0  0  0
  -30.3950  -16.8300   20.8810 C   0  0  0  0  0  2  0  0  0  0  0  0
  -30.6690  -14.4170   20.4760 C   0  0  0  0  0  0  0  0  0  0  0  0
  -30.3580  -12.2810   19.3110 C   0  0  0  0  0  2  0  0  0  0  0  0
  -29.4170  -12.5190   18.1120 C   0  0  0  0  0  2  0  0  0  0  0  0
  -27.9390  -12.4030   18.5400 C   0  0  0  0  0  2  0  0  0  0  0  0
  -27.6160  -13.2310   19.8120 C   0  0  0  0  0  3  0  0  0  0  0  0
  -28.6640  -12.9710   20.9170 C   0  0  0  0  0  2  0  0  0  0  0  0
  -29.9950  -13.2500   20.3530 N   0  0  0  0  0  0  0  0  0  0  0  0
  -31.8060  -14.5980   20.0310 O   0  0  0  0  0  0  0  0  0  0  0  0
  -29.9410  -15.4440   20.9350 N   0  0  0  0  0  0  0  0  0  0  0  0
  -29.0010  -15.2490   21.2410 H   0  0  0  0  0  0  0  0  0  0  0  0
  -25.2210  -13.8580   20.5140 C   0  0  0  0  0  0  0  0  0  0  0  0
  -24.1480  -13.0950   20.8840 C   0  0  0  0  0  0  0  0  0  0  0  0
  -24.6020  -11.7400   20.8620 C   0  0  0  0  0  0  0  0  0  0  0  0
  -26.2610  -12.9720   20.2910 N   0  0  0  0  0  0  0  0  0  0  0  0
  -25.8910  -11.6940   20.5550 N   0  0  0  0  0  0  0  0  0  0  0  0
  -23.8720  -10.4830   21.0560 C   0  0  0  0  0  0  0  0  0  0  0  0
  -24.3110   -9.5110   21.9820 C   0  0  0  0  0  3  0  0  0  0  0  0
  -23.5840   -8.3150   22.1640 C   0  0  0  0  0  3  0  0  0  0  0  0
  -22.4040   -8.0820   21.4160 C   0  0  0  0  0  0  0  0  0  0  0  0
  -21.9880   -9.0410   20.4790 C   0  0  0  0  0  3  0  0  0  0  0  0
  -22.7150  -10.2290   20.2960 C   0  0  0  0  0  3  0  0  0  0  0  0
  -21.6440   -6.9400   21.5100 O   0  0  0  0  0  0  0  0  0  0  0  0
  -21.6090   -6.1900   22.6580 C   0  0  0  0  0  0  0  0  0  0  0  0
  -21.2070   -6.7400   23.8950 C   0  0  0  0  0  3  0  0  0  0  0  0
  -21.1170   -5.9150   25.0360 C   0  0  0  0  0  3  0  0  0  0  0  0
  -21.4220   -4.5430   24.9400 C   0  0  0  0  0  0  0  0  0  0  0  0
  -21.8130   -3.9940   23.7060 C   0  0  0  0  0  3  0  0  0  0  0  0
  -21.9060   -4.8150   22.5690 C   0  0  0  0  0  0  0  0  0  0  0  0
  -22.2660   -4.2760   21.3810 F   0  0  0  0  0  0  0  0  0  0  0  0
  -21.3280   -3.7510   26.0330 F   0  0  0  0  0  0  0  0  0  0  0  0
  -22.7520  -13.5780   21.1530 C   0  0  0  0  0  0  0  0  0  0  0  0
  -22.0240  -12.8850   22.0230 N   0  0  0  0  0  0  0  0  0  0  0  0
  -22.3160  -14.6020   20.6260 O   0  0  0  0  0  0  0  0  0  0  0  0
  -22.3970  -12.0570   22.4650 H   0  0  0  0  0  0  0  0  0  0  0  0
  -21.0840  -13.1830   22.2490 H   0  0  0  0  0  0  0  0  0  0  0  0
  -25.3980  -15.2280   20.3270 N   0  0  0  0  0  0  0  0  0  0  0  0
  -24.6370  -15.8900   20.4240 H   0  0  0  0  0  0  0  0  0  0  0  0
  -26.2480  -15.6510   19.9810 H   0  0  0  0  0  0  0  0  0  0  0  0
  2  1  2  0
  3  4  2  0
  4 48  1  0
  4  1  1  0
  5  2  1  0
  6  3  1  0
  6  5  2  0
  7  9  1  0
  7  5  1  0
  8 19  2  0
  9 14  1  0
 10 18  1  0
 10 20  1  0
 11 17  1  0
 11 13  1  0
 12 18  1  0
 13 12  1  0
 14 13  2  0
 15 16  1  0
 15  9  2  0
 16 11  2  0
 17 10  1  0
 18  8  1  0
 20 22  2  0
 21 20  1  0
 23 21  1  0
 24 33  2  0
 24 29  1  0
 25 21  1  0
 25 29  1  0
 26 25  1  0
 27 28  1  0
 27 26  1  0
 28 24  1  0
 29 30  2  0
 30 31  1  0
 32 31  2  0
 33 32  1  0
 34  8  1  0
 34 35  1  0
 34 44  1  0
 35 38  1  0
 36 40  1  0
 36 35  1  0
 37 36  2  0
 40 39  1  0
 42 40  1  0
 42 43  1  0
 42 41  1  0
 44 47  1  1
 44 45  1  0
 46 44  1  0
 49 48  1  0
 49 51  1  0
 50 49  1  0
 52 53  1  0
 52 49  1  0
 53 54  1  0
 54 63  1  0
 55 63  1  0
 56 61  1  0
 57 58  1  0
 57 56  1  0
 59 58  1  0
 59 68  1  0
 59 60  1  0
 61 55  1  0
 61 60  1  0
 62 55  2  0
 63 64  1  0
 65 66  2  0
 66 85  1  0
 67 66  1  0
 67 70  1  0
 68 65  1  0
 68 69  1  0
 69 67  2  0
 70 71  1  0
 71 72  2  0
 73 76  1  0
 73 72  1  0
 74 73  2  0
 75 74  1  0
 75 70  2  0
 76 77  1  0
 77 78  1  0
 78 79  2  0
 80 79  1  0
 80 84  1  0
 81 80  2  0
 82 77  2  0
 82 81  1  0
 83 82  1  0
 85 86  1  0
 86 89  1  0
 86 88  1  0
 87 85  2  0
 90 91  1  0
 90 65  1  0
 92 90  1  0
M  ISO  4   5 101   7 101  55 100  63 100
M  END
>  <TORSDO>  (37) 
F 21

>  <SCORE>  (37) 
-13.577

>  <name>  (37) 
36

>  <ligand_id>  (37) 
36

>  <original_smiles>  (37) 
[H]c1nc(Oc2c([H])c([H])c3c(c2[H])C([H])([H])N(C(=O)C([H])(N([H])C(=O)C([H])(N([H])C([H])([H])[H])C([H])([H])[H])C(C([H])([H])[H])(C([H])([H])[H])C([H])([H])[H])C([H])(C(=O)N([H])C2([H])c4c([H])c([H])c([H])c([H])c4C([H])([H])C([H])([H])C2([H])[H])C3([H])[H])c([H])c([H])c1C([H])([H])[N+]([H])([H])C([H])([H])C([H])([H])C([H])([H])N([H])C(=O)N1C([H])([H])C([H])([H])C([H])([H])C([H])(n2nc(-c3c([H])c([H])c(Oc4c([H])c([H])c(F)c([H])c4F)c([H])c3[H])c(C(=O)N([H])[H])c2N([H])[H])C1([H])[H]

>  <smiles>  (37) 
[H]c1nc(Oc2c([H])c([H])c3c(c2[H])C([H])([H])N(C(=O)C([H])(N([H])C(=O)C([H])(N([H])C([H])([H])[H])C([H])([H])[H])C(C([H])([H])[H])(C([H])([H])[H])C([H])([H])[H])C([H])(C(=O)N([H])C2([H])c4c([H])c([H])c([H])c([H])c4C([H])([H])C([H])([H])C2([H])[H])C3([H])[H])c([H])c([H])c1C([H])([H])[N+]([H])([H])C([H])([H])C([H])([H])C([H])([H])N([H])C(=O)N1C([H])([H])C([H])([H])C([H])([H])C([H])(n2nc(-c3c([H])c([H])c(Oc4c([H])c([H])c(F)c([H])c4F)c([H])c3[H])c(C(=O)N([H])[H])c2N([H])[H])C1([H])[H]

$$$$
37:0:0
     RDKit          3D

 93102  0  0  1  0  0  0  0  0999 V2000
  -27.6960  -23.8430   17.7250 C   0  0  0  0  0  2  0  0  0  0  0  0
  -26.9000  -23.0050   18.7350 C   0  0  0  0  0  2  0  0  0  0  0  0
  -30.1610  -22.2650   21.3960 C   0  0  0  0  0  2  0  0  0  0  0  0
  -28.9820  -24.2880   18.4380 C   0  0  0  0  0  2  0  0  0  0  0  0
  -30.1510  -23.6270   20.6450 C   0  0  0  0  0  2  0  0  0  0  0  0
  -28.5980  -21.3340   19.6310 C   0  0  0  0  0  2  0  0  0  0  0  0
  -27.8810  -22.7080   19.8810 C   0  0  0  0  0  3  0  0  0  0  0  0
  -29.8960  -21.0680   20.4470 C   0  0  0  0  0  3  0  0  0  0  0  0
  -28.8000  -23.9770   19.9400 C   0  0  2  0  0  0  0  0  0  0  0  0
  -29.9590  -19.7460   21.1650 N   0  0  0  0  0  4  0  0  0  0  0  0
  -29.2800  -19.7400   21.9100 H   0  0  0  0  0  0  0  0  0  0  0  0
  -30.8670  -19.7080   21.5980 H   0  0  0  0  0  0  0  0  0  0  0  0
  -29.7900  -18.4750   20.3830 C   0  0  0  0  0  2  0  0  0  0  0  0
  -30.4680  -17.2110   21.0370 C   0  0  0  0  0  2  0  0  0  0  0  0
  -29.7380  -15.8320   20.8340 C   0  0  0  0  0  2  0  0  0  0  0  0
  -30.5800  -14.5590   20.4720 C   0  0  0  0  0  0  0  0  0  0  0  0
  -30.3510  -12.3650   19.3530 C   0  0  0  0  0  2  0  0  0  0  0  0
  -29.4080  -12.5560   18.1440 C   0  0  0  0  0  2  0  0  0  0  0  0
  -27.9300  -12.4070   18.5600 C   0  0  0  0  0  2  0  0  0  0  0  0
  -27.5810  -13.2370   19.8240 C   0  0  0  0  0  3  0  0  0  0  0  0
  -28.6360  -13.0230   20.9320 C   0  0  0  0  0  2  0  0  0  0  0  0
  -29.9580  -13.3470   20.3770 N   0  0  0  0  0  0  0  0  0  0  0  0
  -31.7430  -14.7120   20.0880 O   0  0  0  0  0  0  0  0  0  0  0  0
  -25.1810  -13.8400   20.5290 C   0  0  0  0  0  0  0  0  0  0  0  0
  -24.1130  -13.0680   20.8940 C   0  0  0  0  0  0  0  0  0  0  0  0
  -24.5760  -11.7170   20.8680 C   0  0  0  0  0  0  0  0  0  0  0  0
  -26.2270  -12.9600   20.3010 N   0  0  0  0  0  0  0  0  0  0  0  0
  -25.8680  -11.6780   20.5640 N   0  0  0  0  0  0  0  0  0  0  0  0
  -23.8490  -10.4540   21.0570 C   0  0  0  0  0  0  0  0  0  0  0  0
  -24.2890   -9.4810   21.9810 C   0  0  0  0  0  3  0  0  0  0  0  0
  -23.5650   -8.2840   22.1570 C   0  0  0  0  0  3  0  0  0  0  0  0
  -22.3870   -8.0490   21.4100 C   0  0  0  0  0  0  0  0  0  0  0  0
  -21.9660   -9.0110   20.4730 C   0  0  0  0  0  3  0  0  0  0  0  0
  -22.6920  -10.2010   20.2960 C   0  0  0  0  0  3  0  0  0  0  0  0
  -21.6320   -6.9040   21.4970 O   0  0  0  0  0  0  0  0  0  0  0  0
  -21.6040   -6.1460   22.6400 C   0  0  0  0  0  0  0  0  0  0  0  0
  -21.2070   -6.6870   23.8820 C   0  0  0  0  0  3  0  0  0  0  0  0
  -21.1250   -5.8560   25.0170 C   0  0  0  0  0  3  0  0  0  0  0  0
  -21.4300   -4.4850   24.9100 C   0  0  0  0  0  0  0  0  0  0  0  0
  -21.8190   -3.9450   23.6720 C   0  0  0  0  0  3  0  0  0  0  0  0
  -21.9030   -4.7730   22.5400 C   0  0  0  0  0  0  0  0  0  0  0  0
  -22.2590   -4.2430   21.3440 F   0  0  0  0  0  0  0  0  0  0  0  0
  -21.3430   -3.6840   25.9980 F   0  0  0  0  0  0  0  0  0  0  0  0
  -22.7140  -13.5440   21.1600 C   0  0  0  0  0  0  0  0  0  0  0  0
  -21.9830  -12.8480   22.0230 N   0  0  0  0  0  0  0  0  0  0  0  0
  -22.2780  -14.5680   20.6360 O   0  0  0  0  0  0  0  0  0  0  0  0
  -22.3470  -12.0190   22.4680 H   0  0  0  0  0  0  0  0  0  0  0  0
  -21.0420  -13.1480   22.2410 H   0  0  0  0  0  0  0  0  0  0  0  0
  -25.3470  -15.2110   20.3510 N   0  0  0  0  0  0  0  0  0  0  0  0
  -24.5800  -15.8650   20.4550 H   0  0  0  0  0  0  0  0  0  0  0  0
  -26.2010  -15.6510   20.0350 H   0  0  0  0  0  0  0  0  0  0  0  0
  -28.0670  -25.1800   20.6690 C   0  0  0  0  0  2  0  0  0  0  0  0
  -28.3100  -26.5490   20.2020 O   0  0  0  0  0  0  0  0  0  0  0  0
  -24.6020  -31.8800   23.2340 C   0  0  0  0  0  0  0  0  0  0  0  0
  -27.1910  -27.3730   20.1590 C   0  0  0  0  0  0  0  0  0  0  0  0
  -23.3810  -30.4760   21.6110 C   0  0  0  0  0  3  0  0  0  0  0  0
  -24.8200  -28.9380   20.1670 C   0  0  0  0  0  0  0  0  0  0  0  0
  -25.9140  -30.8130   21.4000 C   0  0  0  0  0  2  0  0  0  0  0  0
  -25.9910  -29.4410   20.7520 C   0  0  0  0  0  0  0  0  0  0  0  0
  -27.1830  -28.6690   20.7400 C   0  0  0  0  0  3  0  0  0  0  0  0
  -26.0090  -26.9180   19.5340 C   0  0  0  0  0  3  0  0  0  0  0  0
  -24.8290  -27.6810   19.5460 C   0  0  0  0  0  3  0  0  0  0  0  0
  -23.5770  -29.7990   20.2300 C   0  0  0  0  0  2  0  0  0  0  0  0
  -24.6530  -31.0650   22.1430 N   0  0  0  0  0  0  0  0  0  0  0  0
  -23.5180  -32.1780   23.7560 O   0  0  0  0  0  0  0  0  0  0  0  0
  -22.7300  -29.4580   22.5780 C   0  0  0  0  0  0  0  0  0  0  0  0
  -21.4020  -29.2780   22.4580 N   0  0  0  0  0  0  0  0  0  0  0  0
  -23.4140  -28.8330   23.3900 O   0  0  0  0  0  0  0  0  0  0  0  0
  -20.9090  -29.8330   21.7730 H   0  0  0  0  0  0  0  0  0  0  0  0
  -18.0290  -28.0810   22.9660 C   0  0  0  0  0  0  0  0  0  0  0  0
  -20.5880  -28.3420   23.2330 C   0  0  0  0  0  3  0  0  0  0  0  0
  -20.6900  -26.9080   22.6600 C   0  0  0  0  0  2  0  0  0  0  0  0
  -19.5870  -26.5840   21.6490 C   0  0  0  0  0  2  0  0  0  0  0  0
  -18.2060  -26.7310   22.2940 C   0  0  0  0  0  2  0  0  0  0  0  0
  -19.1480  -28.8450   23.3920 C   0  0  0  0  0  0  0  0  0  0  0  0
  -18.9290  -30.1110   23.9790 C   0  0  0  0  0  3  0  0  0  0  0  0
  -17.6240  -30.6130   24.1420 C   0  0  0  0  0  3  0  0  0  0  0  0
  -16.5200  -29.8450   23.7320 C   0  0  0  0  0  3  0  0  0  0  0  0
  -16.7240  -28.5800   23.1520 C   0  0  0  0  0  3  0  0  0  0  0  0
  -25.8930  -32.5010   23.8540 C   0  0  0  0  0  3  0  0  0  0  0  0
  -25.5910  -33.9000   24.1920 N   0  0  0  0  0  0  0  0  0  0  0  0
  -25.9210  -34.9520   23.4310 C   0  0  0  0  0  0  0  0  0  0  0  0
  -26.5830  -34.8470   22.3950 O   0  0  0  0  0  0  0  0  0  0  0  0
  -25.0050  -34.0540   24.9990 H   0  0  0  0  0  0  0  0  0  0  0  0
  -24.1970  -36.7500   23.0830 C   0  0  0  0  0  1  0  0  0  0  0  0
  -25.4400  -36.3420   23.8910 C   0  0  0  0  0  3  0  0  0  0  0  0
  -27.5830  -37.2150   24.7140 C   0  0  0  0  0  1  0  0  0  0  0  0
  -26.4770  -37.3910   23.7760 N   0  0  0  0  0  0  0  0  0  0  0  0
  -26.0760  -38.3120   23.9290 H   0  0  0  0  0  0  0  0  0  0  0  0
  -26.4140  -31.7240   25.1240 C   0  0  1  0  0  0  0  0  0  0  0  0
  -25.3250  -31.4880   26.1970 C   0  0  0  0  0  1  0  0  0  0  0  0
  -26.9870  -30.3450   24.7220 C   0  0  0  0  0  1  0  0  0  0  0  0
  -27.5760  -32.5090   25.7800 C   0  0  0  0  0  1  0  0  0  0  0  0
  1  4  1  0
  1  2  1  0
  4  9  1  0
  5  3  1  0
  6  7  1  0
  6  8  1  0
  7  2  1  0
  7  9  1  0
  8 10  1  0
  8  3  1  0
  9  5  1  0
  9 52  1  1
 10 12  1  0
 10 11  1  0
 13 14  1  0
 13 10  1  0
 15 14  1  0
 16 15  1  0
 17 22  1  0
 18 19  1  0
 18 17  1  0
 20 19  1  0
 20 27  1  0
 20 21  1  0
 22 16  1  0
 22 21  1  0
 23 16  2  0
 24 25  2  0
 25 44  1  0
 26 25  1  0
 26 29  1  0
 27 24  1  0
 27 28  1  0
 28 26  2  0
 29 30  1  0
 30 31  2  0
 32 35  1  0
 32 31  1  0
 33 32  2  0
 34 33  1  0
 34 29  2  0
 35 36  1  0
 36 37  1  0
 37 38  2  0
 39 38  1  0
 39 43  1  0
 40 39  2  0
 41 36  2  0
 41 40  1  0
 42 41  1  0
 44 45  1  0
 45 48  1  0
 45 47  1  0
 46 44  2  0
 49 50  1  0
 49 24  1  0
 51 49  1  0
 53 52  1  0
 54 65  2  0
 55 53  1  0
 55 60  1  0
 56 64  1  0
 56 66  1  0
 57 63  1  0
 57 59  1  0
 58 64  1  0
 59 58  1  0
 60 59  2  0
 61 62  1  0
 61 55  2  0
 62 57  2  0
 63 56  1  0
 64 54  1  0
 66 68  2  0
 67 66  1  0
 69 67  1  0
 70 79  2  0
 70 75  1  0
 71 67  1  0
 71 75  1  0
 72 71  1  0
 73 74  1  0
 73 72  1  0
 74 70  1  0
 75 76  2  0
 76 77  1  0
 78 77  2  0
 79 78  1  0
 80 54  1  0
 80 81  1  0
 80 90  1  0
 81 84  1  0
 82 86  1  0
 82 81  1  0
 83 82  2  0
 86 85  1  0
 88 86  1  0
 88 89  1  0
 88 87  1  0
 90 93  1  1
 90 91  1  0
 92 90  1  0
M  ISO  4  15 100  16 100  52 101  53 101
M  END
>  <TORSDO>  (38) 
F 21

>  <SCORE>  (38) 
-13.660

>  <name>  (38) 
37

>  <ligand_id>  (38) 
37

>  <original_smiles>  (38) 
[H]c1c([H])c([H])c2c(c1[H])C([H])([H])C([H])([H])C([H])([H])C2([H])N([H])C(=O)C1([H])N(C(=O)C([H])(N([H])C(=O)C([H])(N([H])C([H])([H])[H])C([H])([H])[H])C(C([H])([H])[H])(C([H])([H])[H])C([H])([H])[H])C([H])([H])c2c([H])c(OC([H])([H])C34C([H])([H])C([H])([H])C([H])([H])C3([H])C([H])([H])C([H])([N+]([H])([H])C([H])([H])C([H])([H])C([H])([H])C(=O)N3C([H])([H])C([H])([H])C([H])([H])C([H])(n5nc(-c6c([H])c([H])c(Oc7c([H])c([H])c(F)c([H])c7F)c([H])c6[H])c(C(=O)N([H])[H])c5N([H])[H])C3([H])[H])C([H])([H])C4([H])[H])c([H])c([H])c2C1([H])[H]

>  <smiles>  (38) 
[H]c1c([H])c([H])c2c(c1[H])C([H])([H])C([H])([H])C([H])([H])C2([H])N([H])C(=O)C1([H])N(C(=O)C([H])(N([H])C(=O)C([H])(N([H])C([H])([H])[H])C([H])([H])[H])C(C([H])([H])[H])(C([H])([H])[H])C([H])([H])[H])C([H])([H])c2c([H])c(OC([H])([H])C34C([H])([H])C([H])([H])C([H])([H])C3([H])C([H])([H])C([H])([N+]([H])([H])C([H])([H])C([H])([H])C([H])([H])C(=O)N3C([H])([H])C([H])([H])C([H])([H])C([H])(n5nc(-c6c([H])c([H])c(Oc7c([H])c([H])c(F)c([H])c7F)c([H])c6[H])c(C(=O)N([H])[H])c5N([H])[H])C3([H])[H])C([H])([H])C4([H])[H])c([H])c([H])c2C1([H])[H]

$$$$
38:0:0
     RDKit          3D

 96104  0  0  1  0  0  0  0  0999 V2000
  -28.6620  -21.6220   20.1770 C   0  0  0  0  0  3  0  0  0  0  0  0
  -30.6520  -22.9620   20.5370 C   0  0  0  0  0  3  0  0  0  0  0  0
  -30.8540  -20.5570   20.1240 C   0  0  0  0  0  3  0  0  0  0  0  0
  -29.2450  -22.9010   20.4370 C   0  0  0  0  0  0  0  0  0  0  0  0
  -29.4520  -20.4390   20.0160 C   0  0  0  0  0  0  0  0  0  0  0  0
  -31.4450  -21.8080   20.3840 C   0  0  0  0  0  0  0  0  0  0  0  0
  -32.7910  -21.9020   20.4970 F   0  0  0  0  0  0  0  0  0  0  0  0
  -26.9510  -23.9150   21.0240 C   0  0  0  0  0  1  0  0  0  0  0  0
  -28.4290  -24.1990   20.7170 C   0  0  0  0  0  3  0  0  0  0  0  0
  -28.5850  -25.3520   19.6620 C   0  0  0  0  0  2  0  0  0  0  0  0
  -28.4290  -26.6950   20.1950 O   0  0  0  0  0  0  0  0  0  0  0  0
  -24.5980  -31.8870   23.2480 C   0  0  0  0  0  0  0  0  0  0  0  0
  -27.2310  -27.4000   20.1670 C   0  0  0  0  0  0  0  0  0  0  0  0
  -23.3820  -30.4810   21.6140 C   0  0  0  0  0  3  0  0  0  0  0  0
  -24.8300  -28.9320   20.1830 C   0  0  0  0  0  0  0  0  0  0  0  0
  -25.9090  -30.8240   21.4100 C   0  0  0  0  0  2  0  0  0  0  0  0
  -25.9900  -29.4470   20.7740 C   0  0  0  0  0  0  0  0  0  0  0  0
  -27.1850  -28.6870   20.7660 C   0  0  0  0  0  3  0  0  0  0  0  0
  -26.0460  -26.9070   19.5740 C   0  0  0  0  0  3  0  0  0  0  0  0
  -24.8560  -27.6620   19.5810 C   0  0  0  0  0  3  0  0  0  0  0  0
  -23.5850  -29.7920   20.2360 C   0  0  0  0  0  2  0  0  0  0  0  0
  -24.6490  -31.0780   22.1500 N   0  0  0  0  0  0  0  0  0  0  0  0
  -23.5160  -32.1800   23.7710 O   0  0  0  0  0  0  0  0  0  0  0  0
  -22.7280  -29.4670   22.5810 C   0  0  0  0  0  0  0  0  0  0  0  0
  -21.4030  -29.2850   22.4540 N   0  0  0  0  0  0  0  0  0  0  0  0
  -23.4100  -28.8440   23.3990 O   0  0  0  0  0  0  0  0  0  0  0  0
  -20.9130  -29.8440   21.7690 H   0  0  0  0  0  0  0  0  0  0  0  0
  -18.0280  -28.0850   22.9440 C   0  0  0  0  0  0  0  0  0  0  0  0
  -20.5850  -28.3460   23.2210 C   0  0  0  0  0  3  0  0  0  0  0  0
  -20.6880  -26.9140   22.6460 C   0  0  0  0  0  2  0  0  0  0  0  0
  -19.5880  -26.5900   21.6290 C   0  0  0  0  0  2  0  0  0  0  0  0
  -18.2050  -26.7350   22.2700 C   0  0  0  0  0  2  0  0  0  0  0  0
  -19.1430  -28.8500   23.3740 C   0  0  0  0  0  0  0  0  0  0  0  0
  -18.9210  -30.1180   23.9570 C   0  0  0  0  0  3  0  0  0  0  0  0
  -17.6130  -30.6170   24.1150 C   0  0  0  0  0  3  0  0  0  0  0  0
  -16.5120  -29.8480   23.7030 C   0  0  0  0  0  3  0  0  0  0  0  0
  -16.7200  -28.5840   23.1220 C   0  0  0  0  0  3  0  0  0  0  0  0
  -25.8870  -32.5090   23.8740 C   0  0  0  0  0  3  0  0  0  0  0  0
  -25.5900  -33.9080   24.2080 N   0  0  0  0  0  0  0  0  0  0  0  0
  -25.9130  -34.9570   23.4390 C   0  0  0  0  0  0  0  0  0  0  0  0
  -26.5640  -34.8490   22.3970 O   0  0  0  0  0  0  0  0  0  0  0  0
  -25.0220  -34.0690   25.0260 H   0  0  0  0  0  0  0  0  0  0  0  0
  -24.1810  -36.7480   23.0970 C   0  0  0  0  0  1  0  0  0  0  0  0
  -25.4310  -36.3470   23.8980 C   0  0  0  0  0  3  0  0  0  0  0  0
  -27.5770  -37.2280   24.6970 C   0  0  0  0  0  1  0  0  0  0  0  0
  -26.4630  -37.3990   23.7690 N   0  0  0  0  0  0  0  0  0  0  0  0
  -26.0600  -38.3210   23.9190 H   0  0  0  0  0  0  0  0  0  0  0  0
  -26.4020  -31.7340   25.1480 C   0  0  1  0  0  0  0  0  0  0  0  0
  -25.3140  -31.5010   26.2210 C   0  0  0  0  0  1  0  0  0  0  0  0
  -26.9790  -30.3550   24.7510 C   0  0  0  0  0  1  0  0  0  0  0  0
  -27.5610  -32.5160   25.8100 C   0  0  0  0  0  1  0  0  0  0  0  0
  -28.7780  -19.0880   19.6600 C   0  0  0  0  0  3  0  0  0  0  0  0
  -28.1690  -19.2690   18.3290 N   0  0  0  0  0  4  0  0  0  0  0  0
  -28.8740  -19.3910   17.6240 H   0  0  0  0  0  0  0  0  0  0  0  0
  -27.5850  -20.0850   18.3280 H   0  0  0  0  0  0  0  0  0  0  0  0
  -27.5980  -18.4810   18.0790 H   0  0  0  0  0  0  0  0  0  0  0  0
  -29.6290  -17.7490   19.6450 C   0  0  0  0  0  2  0  0  0  0  0  0
  -30.0140  -17.0200   20.9760 C   0  0  0  0  0  2  0  0  0  0  0  0
  -30.6120  -14.5430   20.5030 C   0  0  0  0  0  0  0  0  0  0  0  0
  -30.3880  -12.3600   19.3570 C   0  0  0  0  0  2  0  0  0  0  0  0
  -29.4410  -12.5350   18.1490 C   0  0  0  0  0  2  0  0  0  0  0  0
  -27.9670  -12.3780   18.5730 C   0  0  0  0  0  2  0  0  0  0  0  0
  -27.6150  -13.2230   19.8270 C   0  0  0  0  0  3  0  0  0  0  0  0
  -28.6640  -13.0050   20.9410 C   0  0  0  0  0  2  0  0  0  0  0  0
  -29.9870  -13.3370   20.3830 N   0  0  0  0  0  0  0  0  0  0  0  0
  -31.7540  -14.7510   20.0850 O   0  0  0  0  0  0  0  0  0  0  0  0
  -29.8110  -15.5460   20.9380 N   0  0  0  0  0  0  0  0  0  0  0  0
  -28.8970  -15.2290   21.2300 H   0  0  0  0  0  0  0  0  0  0  0  0
  -25.2150  -13.8360   20.5230 C   0  0  0  0  0  0  0  0  0  0  0  0
  -24.1450  -13.0680   20.8910 C   0  0  0  0  0  0  0  0  0  0  0  0
  -24.6040  -11.7150   20.8700 C   0  0  0  0  0  0  0  0  0  0  0  0
  -26.2600  -12.9530   20.3000 N   0  0  0  0  0  0  0  0  0  0  0  0
  -25.8960  -11.6740   20.5680 N   0  0  0  0  0  0  0  0  0  0  0  0
  -23.8790  -10.4540   21.0640 C   0  0  0  0  0  0  0  0  0  0  0  0
  -24.3170   -9.4860   21.9930 C   0  0  0  0  0  3  0  0  0  0  0  0
  -23.5920   -8.2880   22.1730 C   0  0  0  0  0  3  0  0  0  0  0  0
  -22.4160   -8.0510   21.4230 C   0  0  0  0  0  0  0  0  0  0  0  0
  -21.9970   -9.0090   20.4830 C   0  0  0  0  0  3  0  0  0  0  0  0
  -22.7220  -10.1980   20.3010 C   0  0  0  0  0  3  0  0  0  0  0  0
  -21.6620   -6.9060   21.5110 O   0  0  0  0  0  0  0  0  0  0  0  0
  -21.6300   -6.1530   22.6580 C   0  0  0  0  0  0  0  0  0  0  0  0
  -21.2260   -6.6990   23.8960 C   0  0  0  0  0  3  0  0  0  0  0  0
  -21.1400   -5.8740   25.0340 C   0  0  0  0  0  3  0  0  0  0  0  0
  -21.4470   -4.5040   24.9380 C   0  0  0  0  0  0  0  0  0  0  0  0
  -21.8440   -3.9580   23.7050 C   0  0  0  0  0  3  0  0  0  0  0  0
  -21.9310   -4.7800   22.5680 C   0  0  0  0  0  0  0  0  0  0  0  0
  -22.2950   -4.2440   21.3760 F   0  0  0  0  0  0  0  0  0  0  0  0
  -21.3570   -3.7090   26.0280 F   0  0  0  0  0  0  0  0  0  0  0  0
  -22.7460  -13.5480   21.1530 C   0  0  0  0  0  0  0  0  0  0  0  0
  -22.0120  -12.8560   22.0170 N   0  0  0  0  0  0  0  0  0  0  0  0
  -22.3130  -14.5720   20.6260 O   0  0  0  0  0  0  0  0  0  0  0  0
  -22.3730  -12.0270   22.4670 H   0  0  0  0  0  0  0  0  0  0  0  0
  -21.0720  -13.1620   22.2340 H   0  0  0  0  0  0  0  0  0  0  0  0
  -25.3820  -15.2050   20.3390 N   0  0  0  0  0  0  0  0  0  0  0  0
  -24.6120  -15.8570   20.4390 H   0  0  0  0  0  0  0  0  0  0  0  0
  -26.2260  -15.6400   19.9930 H   0  0  0  0  0  0  0  0  0  0  0  0
  1  4  1  0
  3  6  2  0
  4  2  2  0
  4  9  1  0
  5  3  1  0
  5  1  2  0
  6  7  1  0
  6  2  1  0
  9  8  1  0
 10 11  1  0
 10  9  1  0
 12 23  2  0
 13 11  1  0
 13 18  1  0
 14 22  1  0
 14 24  1  0
 15 21  1  0
 15 17  1  0
 16 22  1  0
 17 16  1  0
 18 17  2  0
 19 20  1  0
 19 13  2  0
 20 15  2  0
 21 14  1  0
 22 12  1  0
 24 26  2  0
 25 24  1  0
 27 25  1  0
 28 37  2  0
 28 33  1  0
 29 25  1  0
 29 33  1  0
 30 29  1  0
 31 32  1  0
 31 30  1  0
 32 28  1  0
 33 34  2  0
 34 35  1  0
 36 35  2  0
 37 36  1  0
 38 12  1  0
 38 39  1  0
 38 48  1  0
 39 42  1  0
 40 44  1  0
 40 39  1  0
 41 40  2  0
 44 43  1  0
 46 44  1  0
 46 47  1  0
 46 45  1  0
 48 51  1  1
 48 49  1  0
 50 48  1  0
 52 57  1  0
 52  5  1  0
 53 52  1  0
 54 53  1  0
 55 53  1  0
 56 53  1  0
 57 58  1  0
 59 67  1  0
 60 65  1  0
 61 62  1  0
 61 60  1  0
 63 62  1  0
 63 72  1  0
 63 64  1  0
 65 59  1  0
 65 64  1  0
 66 59  2  0
 67 58  1  0
 67 68  1  0
 69 70  2  0
 70 89  1  0
 71 70  1  0
 71 74  1  0
 72 69  1  0
 72 73  1  0
 73 71  2  0
 74 75  1  0
 75 76  2  0
 77 80  1  0
 77 76  1  0
 78 77  2  0
 79 78  1  0
 79 74  2  0
 80 81  1  0
 81 82  1  0
 82 83  2  0
 84 83  1  0
 84 88  1  0
 85 84  2  0
 86 81  2  0
 86 85  1  0
 87 86  1  0
 89 90  1  0
 90 93  1  0
 90 92  1  0
 91 89  2  0
 94 95  1  0
 94 69  1  0
 96 94  1  0
M  ISO  4  10 101  11 101  59 100  67 100
M  END
>  <TORSDO>  (39) 
F 22

>  <SCORE>  (39) 
-13.539

>  <name>  (39) 
38

>  <ligand_id>  (39) 
38

>  <original_smiles>  (39) 
[H]c1c([H])c([H])c2c(c1[H])C([H])([H])C([H])([H])C([H])([H])C2([H])N([H])C(=O)C1([H])N(C(=O)C([H])(N([H])C(=O)C([H])(N([H])C([H])([H])[H])C([H])([H])[H])C(C([H])([H])[H])(C([H])([H])[H])C([H])([H])[H])C([H])([H])c2c([H])c(OC([H])([H])C([H])(c3c([H])c(F)c([H])c(C([H])(C([H])([H])C([H])([H])N([H])C(=O)N4C([H])([H])C([H])([H])C([H])([H])C([H])(n5nc(-c6c([H])c([H])c(Oc7c([H])c([H])c(F)c([H])c7F)c([H])c6[H])c(C(=O)N([H])[H])c5N([H])[H])C4([H])[H])[N+]([H])([H])[H])c3[H])C([H])([H])[H])c([H])c([H])c2C1([H])[H]

>  <smiles>  (39) 
[H]c1c([H])c([H])c2c(c1[H])C([H])([H])C([H])([H])C([H])([H])C2([H])N([H])C(=O)C1([H])N(C(=O)C([H])(N([H])C(=O)C([H])(N([H])C([H])([H])[H])C([H])([H])[H])C(C([H])([H])[H])(C([H])([H])[H])C([H])([H])[H])C([H])([H])c2c([H])c(OC([H])([H])C([H])(c3c([H])c(F)c([H])c(C([H])(C([H])([H])C([H])([H])N([H])C(=O)N4C([H])([H])C([H])([H])C([H])([H])C([H])(n5nc(-c6c([H])c([H])c(Oc7c([H])c([H])c(F)c([H])c7F)c([H])c6[H])c(C(=O)N([H])[H])c5N([H])[H])C4([H])[H])[N+]([H])([H])[H])c3[H])C([H])([H])[H])c([H])c([H])c2C1([H])[H]

$$$$
39:0:0
     RDKit          3D

 92101  0  0  1  0  0  0  0  0999 V2000
  -27.8250  -23.5350   17.8940 C   0  0  0  0  0  3  0  0  0  0  0  0
  -27.8410  -24.8790   18.3250 C   0  0  0  0  0  3  0  0  0  0  0  0
  -29.3780  -22.9840   19.6720 C   0  0  0  0  0  3  0  0  0  0  0  0
  -28.5830  -22.5580   18.5760 C   0  0  0  0  0  0  0  0  0  0  0  0
  -29.3410  -24.3330   20.1220 C   0  0  0  0  0  0  0  0  0  0  0  0
  -28.4880  -25.3020   19.5130 C   0  0  0  0  0  0  0  0  0  0  0  0
  -30.2760  -24.7360   21.2420 C   0  0  0  0  0  1  0  0  0  0  0  0
  -28.3780  -26.6140   20.0280 O   0  0  0  0  0  0  0  0  0  0  0  0
  -24.5790  -31.8920   23.2280 C   0  0  0  0  0  0  0  0  0  0  0  0
  -27.1890  -27.3620   20.0950 C   0  0  0  0  0  0  0  0  0  0  0  0
  -23.3750  -30.4870   21.5970 C   0  0  0  0  0  3  0  0  0  0  0  0
  -24.8090  -28.9490   20.1620 C   0  0  0  0  0  0  0  0  0  0  0  0
  -25.9080  -30.8230   21.3810 C   0  0  0  0  0  2  0  0  0  0  0  0
  -25.9850  -29.4370   20.7480 C   0  0  0  0  0  0  0  0  0  0  0  0
  -27.1740  -28.6550   20.6960 C   0  0  0  0  0  3  0  0  0  0  0  0
  -25.9550  -26.8910   19.5830 C   0  0  0  0  0  3  0  0  0  0  0  0
  -24.7950  -27.6860   19.5750 C   0  0  0  0  0  3  0  0  0  0  0  0
  -23.5750  -29.8160   20.2150 C   0  0  0  0  0  2  0  0  0  0  0  0
  -24.6450  -31.0840   22.1310 N   0  0  0  0  0  0  0  0  0  0  0  0
  -23.4930  -32.1670   23.7520 O   0  0  0  0  0  0  0  0  0  0  0  0
  -22.7110  -29.4750   22.5610 C   0  0  0  0  0  0  0  0  0  0  0  0
  -21.3830  -29.2930   22.4410 N   0  0  0  0  0  0  0  0  0  0  0  0
  -23.3950  -28.8470   23.3760 O   0  0  0  0  0  0  0  0  0  0  0  0
  -20.8950  -29.8650   21.7690 H   0  0  0  0  0  0  0  0  0  0  0  0
  -18.0070  -28.0810   22.9550 C   0  0  0  0  0  0  0  0  0  0  0  0
  -20.5680  -28.3500   23.2120 C   0  0  0  0  0  3  0  0  0  0  0  0
  -20.6710  -26.9170   22.6410 C   0  0  0  0  0  2  0  0  0  0  0  0
  -19.5660  -26.5850   21.6310 C   0  0  0  0  0  2  0  0  0  0  0  0
  -18.1870  -26.7290   22.2810 C   0  0  0  0  0  2  0  0  0  0  0  0
  -19.1260  -28.8440   23.3800 C   0  0  0  0  0  0  0  0  0  0  0  0
  -18.9050  -30.1090   23.9710 C   0  0  0  0  0  3  0  0  0  0  0  0
  -17.6020  -30.6050   24.1390 C   0  0  0  0  0  3  0  0  0  0  0  0
  -16.4980  -29.8370   23.7340 C   0  0  0  0  0  3  0  0  0  0  0  0
  -16.7010  -28.5770   23.1470 C   0  0  0  0  0  3  0  0  0  0  0  0
  -25.8530  -32.5320   23.8590 C   0  0  0  0  0  3  0  0  0  0  0  0
  -25.5450  -33.9370   24.1860 N   0  0  0  0  0  0  0  0  0  0  0  0
  -25.8760  -34.9850   23.4200 C   0  0  0  0  0  0  0  0  0  0  0  0
  -26.5470  -34.8730   22.3910 O   0  0  0  0  0  0  0  0  0  0  0  0
  -24.9640  -34.1050   24.9950 H   0  0  0  0  0  0  0  0  0  0  0  0
  -24.1690  -36.7890   23.0280 C   0  0  0  0  0  1  0  0  0  0  0  0
  -25.3920  -36.3830   23.8640 C   0  0  0  0  0  3  0  0  0  0  0  0
  -27.5240  -37.2510   24.7190 C   0  0  0  0  0  1  0  0  0  0  0  0
  -26.4370  -37.4240   23.7580 N   0  0  0  0  0  0  0  0  0  0  0  0
  -26.0400  -38.3510   23.8930 H   0  0  0  0  0  0  0  0  0  0  0  0
  -26.3660  -31.7730   25.1410 C   0  0  1  0  0  0  0  0  0  0  0  0
  -25.2780  -31.5440   26.2170 C   0  0  0  0  0  1  0  0  0  0  0  0
  -26.9480  -30.3980   24.7500 C   0  0  0  0  0  1  0  0  0  0  0  0
  -27.5200  -32.5710   25.7960 C   0  0  0  0  0  1  0  0  0  0  0  0
  -28.4620  -21.0810   18.1410 C   0  0  0  0  0  2  0  0  0  0  0  0
  -29.7210  -20.1660   18.3410 C   0  0  0  0  0  2  0  0  0  0  0  0
  -30.7580  -14.6680   20.2690 C   0  0  0  0  0  0  0  0  0  0  0  0
  -30.3650  -12.4260   19.3690 C   0  0  0  0  0  2  0  0  0  0  0  0
  -29.4360  -12.4950   18.1480 C   0  0  0  0  0  2  0  0  0  0  0  0
  -27.9700  -12.3440   18.6040 C   0  0  0  0  0  2  0  0  0  0  0  0
  -27.5950  -13.2540   19.8080 C   0  0  0  0  0  3  0  0  0  0  0  0
  -28.6880  -13.2830   20.9000 C   0  0  0  0  0  2  0  0  0  0  0  0
  -29.9640  -13.5520   20.2240 N   0  0  0  0  0  0  0  0  0  0  0  0
  -31.9810  -14.5110   20.3000 O   0  0  0  0  0  0  0  0  0  0  0  0
  -30.8770  -18.4560   19.9000 C   0  0  0  0  0  2  0  0  0  0  0  0
  -28.9600  -17.6580   18.4930 C   0  0  0  0  0  2  0  0  0  0  0  0
  -31.3240  -16.9890   19.6780 C   0  0  0  0  0  2  0  0  0  0  0  0
  -28.9960  -16.3150   19.3050 C   0  0  0  0  0  2  0  0  0  0  0  0
  -29.5540  -18.8780   19.2220 C   0  0  0  0  0  3  0  0  0  0  0  0
  -30.2990  -15.9320   19.9080 N   0  0  0  0  0  0  0  0  0  0  0  0
  -25.2280  -13.8680   20.5510 C   0  0  0  0  0  0  0  0  0  0  0  0
  -24.1590  -13.0950   20.9150 C   0  0  0  0  0  0  0  0  0  0  0  0
  -24.6230  -11.7480   20.8880 C   0  0  0  0  0  0  0  0  0  0  0  0
  -26.2680  -12.9800   20.3240 N   0  0  0  0  0  0  0  0  0  0  0  0
  -25.9150  -11.7030   20.5940 N   0  0  0  0  0  0  0  0  0  0  0  0
  -23.8950  -10.4850   21.0660 C   0  0  0  0  0  0  0  0  0  0  0  0
  -24.3240   -9.5140   21.9960 C   0  0  0  0  0  3  0  0  0  0  0  0
  -23.5960   -8.3190   22.1660 C   0  0  0  0  0  3  0  0  0  0  0  0
  -22.4240   -8.0890   21.4060 C   0  0  0  0  0  0  0  0  0  0  0  0
  -22.0180   -9.0470   20.4600 C   0  0  0  0  0  3  0  0  0  0  0  0
  -22.7490  -10.2340   20.2880 C   0  0  0  0  0  3  0  0  0  0  0  0
  -21.6680   -6.9470   21.4890 O   0  0  0  0  0  0  0  0  0  0  0  0
  -21.6160   -6.1980   22.6370 C   0  0  0  0  0  0  0  0  0  0  0  0
  -21.1890   -6.7480   23.8650 C   0  0  0  0  0  3  0  0  0  0  0  0
  -21.0860   -5.9270   25.0060 C   0  0  0  0  0  3  0  0  0  0  0  0
  -21.4030   -4.5590   24.9200 C   0  0  0  0  0  0  0  0  0  0  0  0
  -21.8240   -4.0090   23.6970 C   0  0  0  0  0  3  0  0  0  0  0  0
  -21.9310   -4.8260   22.5590 C   0  0  0  0  0  0  0  0  0  0  0  0
  -22.3180   -4.2900   21.3760 F   0  0  0  0  0  0  0  0  0  0  0  0
  -21.2970   -3.7650   26.0110 F   0  0  0  0  0  0  0  0  0  0  0  0
  -22.7600  -13.5780   21.1680 C   0  0  0  0  0  0  0  0  0  0  0  0
  -22.0230  -12.8790   22.0230 N   0  0  0  0  0  0  0  0  0  0  0  0
  -22.3320  -14.6050   20.6440 O   0  0  0  0  0  0  0  0  0  0  0  0
  -22.3860  -12.0490   22.4680 H   0  0  0  0  0  0  0  0  0  0  0  0
  -21.0830  -13.1780   22.2390 H   0  0  0  0  0  0  0  0  0  0  0  0
  -25.3880  -15.2380   20.3760 N   0  0  0  0  0  0  0  0  0  0  0  0
  -24.6140  -15.8850   20.4780 H   0  0  0  0  0  0  0  0  0  0  0  0
  -26.2440  -15.6850   20.0760 H   0  0  0  0  0  0  0  0  0  0  0  0
  1  2  2  0
  1  4  1  0
  2  6  1  0
  3  5  1  0
  4  3  2  0
  5  7  1  0
  6  8  1  0
  6  5  2  0
  8 10  1  0
  9 20  2  0
 10 15  1  0
 11 19  1  0
 11 21  1  0
 12 18  1  0
 12 14  1  0
 13 19  1  0
 14 13  1  0
 15 14  2  0
 16 10  2  0
 17 16  1  0
 17 12  2  0
 18 11  1  0
 19  9  1  0
 21 23  2  0
 22 21  1  0
 24 22  1  0
 25 34  2  0
 25 30  1  0
 26 22  1  0
 26 30  1  0
 27 26  1  0
 28 29  1  0
 28 27  1  0
 29 25  1  0
 30 31  2  0
 31 32  1  0
 33 32  2  0
 34 33  1  0
 35  9  1  0
 35 36  1  0
 35 45  1  0
 36 39  1  0
 37 41  1  0
 37 36  1  0
 38 37  2  0
 41 40  1  0
 43 41  1  0
 43 44  1  0
 43 42  1  0
 45 48  1  1
 45 46  1  0
 47 45  1  0
 49 50  1  0
 49  4  1  0
 51 58  2  0
 52 57  1  0
 53 54  1  0
 53 52  1  0
 55 54  1  0
 55 68  1  0
 55 56  1  0
 57 51  1  0
 57 56  1  0
 60 63  1  0
 60 62  1  0
 61 59  1  0
 61 64  1  0
 62 64  1  0
 63 50  1  0
 63 59  1  0
 64 51  1  0
 65 66  2  0
 66 85  1  0
 67 66  1  0
 67 70  1  0
 68 65  1  0
 68 69  1  0
 69 67  2  0
 70 71  1  0
 71 72  2  0
 73 76  1  0
 73 72  1  0
 74 73  2  0
 75 74  1  0
 75 70  2  0
 76 77  1  0
 77 78  1  0
 78 79  2  0
 80 79  1  0
 80 84  1  0
 81 80  2  0
 82 77  2  0
 82 81  1  0
 83 82  1  0
 85 86  1  0
 86 89  1  0
 86 88  1  0
 87 85  2  0
 90 91  1  0
 90 65  1  0
 92 90  1  0
M  ISO  4   6 101   8 101  51 100  64 100
M  END
>  <TORSDO>  (40) 
F 18

>  <SCORE>  (40) 
-14.734

>  <name>  (40) 
39

>  <ligand_id>  (40) 
39

>  <original_smiles>  (40) 
[H]c1c([H])c([H])c2c(c1[H])C([H])([H])C([H])([H])C([H])([H])C2([H])N([H])C(=O)C1([H])N(C(=O)C([H])(N([H])C(=O)C([H])(N([H])C([H])([H])[H])C([H])([H])[H])C(C([H])([H])[H])(C([H])([H])[H])C([H])([H])[H])C([H])([H])c2c([H])c(Oc3c([H])c([H])c(C([H])([H])C([H])([H])C4([H])C([H])([H])C([H])([H])N(C(=O)N5C([H])([H])C([H])([H])C([H])([H])C([H])(n6nc(-c7c([H])c([H])c(Oc8c([H])c([H])c(F)c([H])c8F)c([H])c7[H])c(C(=O)N([H])[H])c6N([H])[H])C5([H])[H])C([H])([H])C4([H])[H])c([H])c3C([H])([H])[H])c([H])c([H])c2C1([H])[H]

>  <smiles>  (40) 
[H]c1c([H])c([H])c2c(c1[H])C([H])([H])C([H])([H])C([H])([H])C2([H])N([H])C(=O)C1([H])N(C(=O)C([H])(N([H])C(=O)C([H])(N([H])C([H])([H])[H])C([H])([H])[H])C(C([H])([H])[H])(C([H])([H])[H])C([H])([H])[H])C([H])([H])c2c([H])c(Oc3c([H])c([H])c(C([H])([H])C([H])([H])C4([H])C([H])([H])C([H])([H])N(C(=O)N5C([H])([H])C([H])([H])C([H])([H])C([H])(n6nc(-c7c([H])c([H])c(Oc8c([H])c([H])c(F)c([H])c8F)c([H])c7[H])c(C(=O)N([H])[H])c6N([H])[H])C5([H])[H])C([H])([H])C4([H])[H])c([H])c3C([H])([H])[H])c([H])c([H])c2C1([H])[H]

$$$$
40:0:0
     RDKit          3D

 96105  0  0  1  0  0  0  0  0999 V2000
  -29.2030  -22.0280   19.2890 C   0  0  0  0  0  3  0  0  0  0  0  0
  -29.7730  -22.9680   21.4550 C   0  0  0  0  0  3  0  0  0  0  0  0
  -28.8640  -23.3160   18.8220 C   0  0  0  0  0  3  0  0  0  0  0  0
  -29.4330  -24.2560   20.9880 C   0  0  0  0  0  3  0  0  0  0  0  0
  -29.6690  -21.8350   20.6120 C   0  0  0  0  0  0  0  0  0  0  0  0
  -28.9780  -24.4370   19.6650 C   0  0  0  0  0  0  0  0  0  0  0  0
  -30.0750  -20.4890   21.1420 C   0  0  0  0  0  0  0  0  0  0  0  0
  -30.5790  -20.3520   22.2630 O   0  0  0  0  0  0  0  0  0  0  0  0
  -30.8660  -17.3510   19.1640 C   0  0  0  0  0  0  0  0  0  0  0  0
  -29.4960  -17.9580   21.0790 C   0  0  0  0  0  2  0  0  0  0  0  0
  -29.8190  -16.7960   20.1320 C   0  0  0  0  0  3  0  0  0  0  0  0
  -31.0750  -18.8420   19.4180 C   0  0  0  0  0  3  0  0  0  0  0  0
  -29.8430  -19.2380   20.2670 C   0  0  0  0  0  3  0  0  0  0  0  0
  -31.3600  -16.7800   18.1860 O   0  0  0  0  0  0  0  0  0  0  0  0
  -30.8030  -14.4690   20.4020 C   0  0  0  0  0  0  0  0  0  0  0  0
  -30.5080  -12.3100   19.2730 C   0  0  0  0  0  2  0  0  0  0  0  0
  -29.5730  -12.5500   18.0680 C   0  0  0  0  0  2  0  0  0  0  0  0
  -28.0950  -12.4230   18.4890 C   0  0  0  0  0  2  0  0  0  0  0  0
  -27.7620  -13.2540   19.7570 C   0  0  0  0  0  3  0  0  0  0  0  0
  -28.8100  -13.0000   20.8670 C   0  0  0  0  0  2  0  0  0  0  0  0
  -30.1460  -13.2830   20.3140 N   0  0  0  0  0  0  0  0  0  0  0  0
  -31.9440  -14.6420   19.9730 O   0  0  0  0  0  0  0  0  0  0  0  0
  -30.0210  -15.4900   20.7970 N   0  0  0  0  0  0  0  0  0  0  0  0
  -29.1970  -15.1610   21.2770 H   0  0  0  0  0  0  0  0  0  0  0  0
  -25.3590  -13.8880   20.4340 C   0  0  0  0  0  0  0  0  0  0  0  0
  -24.2840  -13.1270   20.8050 C   0  0  0  0  0  0  0  0  0  0  0  0
  -24.7380  -11.7720   20.7920 C   0  0  0  0  0  0  0  0  0  0  0  0
  -26.4020  -12.9980   20.2240 N   0  0  0  0  0  0  0  0  0  0  0  0
  -26.0300  -11.7210   20.4950 N   0  0  0  0  0  0  0  0  0  0  0  0
  -24.0030  -10.5150   20.9920 C   0  0  0  0  0  0  0  0  0  0  0  0
  -24.4290   -9.5550   21.9340 C   0  0  0  0  0  3  0  0  0  0  0  0
  -23.6980   -8.3610   22.1210 C   0  0  0  0  0  3  0  0  0  0  0  0
  -22.5270   -8.1220   21.3640 C   0  0  0  0  0  0  0  0  0  0  0  0
  -22.1190   -9.0730   20.4110 C   0  0  0  0  0  3  0  0  0  0  0  0
  -22.8510  -10.2560   20.2220 C   0  0  0  0  0  3  0  0  0  0  0  0
  -21.7660   -6.9820   21.4600 O   0  0  0  0  0  0  0  0  0  0  0  0
  -21.7110   -6.2490   22.6180 C   0  0  0  0  0  0  0  0  0  0  0  0
  -21.2840   -6.8140   23.8380 C   0  0  0  0  0  3  0  0  0  0  0  0
  -21.1760   -6.0070   24.9880 C   0  0  0  0  0  3  0  0  0  0  0  0
  -21.4860   -4.6360   24.9200 C   0  0  0  0  0  0  0  0  0  0  0  0
  -21.9060   -4.0700   23.7030 C   0  0  0  0  0  3  0  0  0  0  0  0
  -22.0160   -4.8740   22.5550 C   0  0  0  0  0  0  0  0  0  0  0  0
  -22.4020   -4.3180   21.3810 F   0  0  0  0  0  0  0  0  0  0  0  0
  -21.3750   -3.8580   26.0220 F   0  0  0  0  0  0  0  0  0  0  0  0
  -22.8870  -13.6130   21.0630 C   0  0  0  0  0  0  0  0  0  0  0  0
  -22.1490  -12.9300   21.9310 N   0  0  0  0  0  0  0  0  0  0  0  0
  -22.4580  -14.6360   20.5300 O   0  0  0  0  0  0  0  0  0  0  0  0
  -22.5080  -12.1010   22.3830 H   0  0  0  0  0  0  0  0  0  0  0  0
  -21.2130  -13.2390   22.1470 H   0  0  0  0  0  0  0  0  0  0  0  0
  -25.5320  -15.2550   20.2390 N   0  0  0  0  0  0  0  0  0  0  0  0
  -24.7620  -15.9110   20.3270 H   0  0  0  0  0  0  0  0  0  0  0  0
  -26.3820  -15.6880   19.9060 H   0  0  0  0  0  0  0  0  0  0  0  0
  -31.1990  -19.5350   18.1810 O   0  0  0  0  0  0  0  0  0  0  0  0
  -31.8080  -19.0240   17.6510 H   0  0  0  0  0  0  0  0  0  0  0  0
  -28.6870  -25.8290   19.1150 C   0  0  0  0  0  2  0  0  0  0  0  0
  -28.4060  -26.7960   20.1290 O   0  0  0  0  0  0  0  0  0  0  0  0
  -24.5940  -31.9080   23.2530 C   0  0  0  0  0  0  0  0  0  0  0  0
  -27.1980  -27.4620   20.1390 C   0  0  0  0  0  0  0  0  0  0  0  0
  -23.3650  -30.5040   21.6290 C   0  0  0  0  0  3  0  0  0  0  0  0
  -24.7960  -28.9560   20.1950 C   0  0  0  0  0  0  0  0  0  0  0  0
  -25.8890  -30.8500   21.4100 C   0  0  0  0  0  2  0  0  0  0  0  0
  -25.9590  -29.4790   20.7710 C   0  0  0  0  0  0  0  0  0  0  0  0
  -27.1580  -28.7350   20.7480 C   0  0  0  0  0  3  0  0  0  0  0  0
  -26.0080  -26.9330   19.5870 C   0  0  0  0  0  3  0  0  0  0  0  0
  -24.8120  -27.6780   19.6080 C   0  0  0  0  0  3  0  0  0  0  0  0
  -23.5580  -29.8190   20.2490 C   0  0  0  0  0  2  0  0  0  0  0  0
  -24.6350  -31.0980   22.1580 N   0  0  0  0  0  0  0  0  0  0  0  0
  -23.5140  -32.2090   23.7810 O   0  0  0  0  0  0  0  0  0  0  0  0
  -22.7170  -29.4870   22.5960 C   0  0  0  0  0  0  0  0  0  0  0  0
  -21.3940  -29.3030   22.4700 N   0  0  0  0  0  0  0  0  0  0  0  0
  -23.4030  -28.8660   23.4120 O   0  0  0  0  0  0  0  0  0  0  0  0
  -20.9030  -29.8570   21.7810 H   0  0  0  0  0  0  0  0  0  0  0  0
  -18.0230  -28.0980   22.9540 C   0  0  0  0  0  0  0  0  0  0  0  0
  -20.5770  -28.3680   23.2420 C   0  0  0  0  0  3  0  0  0  0  0  0
  -20.6890  -26.9330   22.6780 C   0  0  0  0  0  2  0  0  0  0  0  0
  -19.5950  -26.5970   21.6590 C   0  0  0  0  0  2  0  0  0  0  0  0
  -18.2090  -26.7430   22.2920 C   0  0  0  0  0  2  0  0  0  0  0  0
  -19.1350  -28.8680   23.3860 C   0  0  0  0  0  0  0  0  0  0  0  0
  -18.9080  -30.1350   23.9630 C   0  0  0  0  0  3  0  0  0  0  0  0
  -17.6010  -30.6350   24.1140 C   0  0  0  0  0  3  0  0  0  0  0  0
  -16.5020  -29.8620   23.7000 C   0  0  0  0  0  3  0  0  0  0  0  0
  -16.7140  -28.5960   23.1260 C   0  0  0  0  0  3  0  0  0  0  0  0
  -25.8910  -32.5200   23.8720 C   0  0  0  0  0  3  0  0  0  0  0  0
  -26.4140  -31.7370   25.1390 C   0  0  1  0  0  0  0  0  0  0  0  0
  -25.3290  -31.5000   26.2130 C   0  0  0  0  0  1  0  0  0  0  0  0
  -26.9860  -30.3590   24.7310 C   0  0  0  0  0  1  0  0  0  0  0  0
  -27.5760  -32.5200   25.7960 C   0  0  0  0  0  1  0  0  0  0  0  0
  -25.5990  -33.9180   24.2110 N   0  0  0  0  0  0  0  0  0  0  0  0
  -25.9210  -34.9680   23.4440 C   0  0  0  0  0  0  0  0  0  0  0  0
  -26.5720  -34.8610   22.4000 O   0  0  0  0  0  0  0  0  0  0  0  0
  -25.0220  -34.0770   25.0240 H   0  0  0  0  0  0  0  0  0  0  0  0
  -24.1910  -36.7620   23.1210 C   0  0  0  0  0  1  0  0  0  0  0  0
  -25.4470  -36.3570   23.9090 C   0  0  0  0  0  3  0  0  0  0  0  0
  -27.5990  -37.2370   24.6980 C   0  0  0  0  0  1  0  0  0  0  0  0
  -26.4800  -37.4070   23.7740 N   0  0  0  0  0  0  0  0  0  0  0  0
  -26.0800  -38.3280   23.9290 H   0  0  0  0  0  0  0  0  0  0  0  0
  1  5  1  0
  3  1  2  0
  3  6  1  0
  4  2  1  0
  5  7  1  0
  5  2  2  0
  6  4  2  0
  7  8  2  0
  9 12  1  0
  9 11  1  0
 11 23  1  0
 11 10  1  0
 12 53  1  0
 12 13  1  0
 13 10  1  0
 13  7  1  0
 14  9  2  0
 15 23  1  0
 16 21  1  0
 17 18  1  0
 17 16  1  0
 19 18  1  0
 19 28  1  0
 19 20  1  0
 21 15  1  0
 21 20  1  0
 22 15  2  0
 23 24  1  0
 25 26  2  0
 26 45  1  0
 27 26  1  0
 27 30  1  0
 28 25  1  0
 28 29  1  0
 29 27  2  0
 30 31  1  0
 31 32  2  0
 33 36  1  0
 33 32  1  0
 34 33  2  0
 35 34  1  0
 35 30  2  0
 36 37  1  0
 37 38  1  0
 38 39  2  0
 40 39  1  0
 40 44  1  0
 41 40  2  0
 42 37  2  0
 42 41  1  0
 43 42  1  0
 45 46  1  0
 46 49  1  0
 46 48  1  0
 47 45  2  0
 50 51  1  0
 50 25  1  0
 52 50  1  0
 54 53  1  0
 55  6  1  0
 55 56  1  0
 56 58  1  0
 57 68  2  0
 58 63  1  0
 59 67  1  0
 59 69  1  0
 60 66  1  0
 60 62  1  0
 61 67  1  0
 62 61  1  0
 63 62  2  0
 64 65  1  0
 64 58  2  0
 65 60  2  0
 66 59  1  0
 67 57  1  0
 69 71  2  0
 70 69  1  0
 72 70  1  0
 73 82  2  0
 73 78  1  0
 74 70  1  0
 74 78  1  0
 75 74  1  0
 76 77  1  0
 76 75  1  0
 77 73  1  0
 78 79  2  0
 79 80  1  0
 81 80  2  0
 82 81  1  0
 83 57  1  0
 83 88  1  0
 83 84  1  0
 84 87  1  1
 84 85  1  0
 86 84  1  0
 88 91  1  0
 89 93  1  0
 89 88  1  0
 90 89  2  0
 93 92  1  0
 95 93  1  0
 95 96  1  0
 95 94  1  0
M  ISO  4  15 100  23 100  55 101  56 101
M  END
>  <TORSDO>  (41) 
F 20

>  <SCORE>  (41) 
-14.286

>  <name>  (41) 
40

>  <ligand_id>  (41) 
40

>  <original_smiles>  (41) 
[H]OC1([H])C(=O)C([H])(N([H])C(=O)N2C([H])([H])C([H])([H])C([H])([H])C([H])(n3nc(-c4c([H])c([H])c(Oc5c([H])c([H])c(F)c([H])c5F)c([H])c4[H])c(C(=O)N([H])[H])c3N([H])[H])C2([H])[H])C([H])([H])C1([H])C(=O)c1c([H])c([H])c(C([H])([H])Oc2c([H])c([H])c3c(c2[H])C([H])([H])N(C(=O)C([H])(N([H])C(=O)C([H])(N([H])C([H])([H])[H])C([H])([H])[H])C(C([H])([H])[H])(C([H])([H])[H])C([H])([H])[H])C([H])(C(=O)N([H])C2([H])c4c([H])c([H])c([H])c([H])c4C([H])([H])C([H])([H])C2([H])[H])C3([H])[H])c([H])c1[H]

>  <smiles>  (41) 
[H]OC1([H])C(=O)C([H])(N([H])C(=O)N2C([H])([H])C([H])([H])C([H])([H])C([H])(n3nc(-c4c([H])c([H])c(Oc5c([H])c([H])c(F)c([H])c5F)c([H])c4[H])c(C(=O)N([H])[H])c3N([H])[H])C2([H])[H])C([H])([H])C1([H])C(=O)c1c([H])c([H])c(C([H])([H])Oc2c([H])c([H])c3c(c2[H])C([H])([H])N(C(=O)C([H])(N([H])C(=O)C([H])(N([H])C([H])([H])[H])C([H])([H])[H])C(C([H])([H])[H])(C([H])([H])[H])C([H])([H])[H])C([H])(C(=O)N([H])C2([H])c4c([H])c([H])c([H])c([H])c4C([H])([H])C([H])([H])C2([H])[H])C3([H])[H])c([H])c1[H]

$$$$
41:0:0
     RDKit          3D

 95103  0  0  1  0  0  0  0  0999 V2000
  -28.9110  -21.2560   22.0040 C   0  0  0  0  0  3  0  0  0  0  0  0
  -28.9340  -20.1480   21.1340 C   0  0  0  0  0  3  0  0  0  0  0  0
  -30.6030  -22.3580   20.6660 C   0  0  0  0  0  3  0  0  0  0  0  0
  -29.7420  -22.3830   21.7830 C   0  0  0  0  0  0  0  0  0  0  0  0
  -29.7800  -20.1360   20.0060 C   0  0  0  0  0  0  0  0  0  0  0  0
  -30.6090  -21.2640   19.7680 C   0  0  0  0  0  0  0  0  0  0  0  0
  -31.5240  -21.3220   18.5560 C   0  0  0  0  0  1  0  0  0  0  0  0
  -29.7620  -23.4810   22.8230 C   0  0  0  0  0  0  0  0  0  0  0  0
  -29.7490  -24.7920   22.5220 N   0  0  0  0  0  0  0  0  0  0  0  0
  -29.7210  -23.1600   24.0110 O   0  0  0  0  0  0  0  0  0  0  0  0
  -29.6940  -25.3730   23.3460 H   0  0  0  0  0  0  0  0  0  0  0  0
  -29.8780  -25.5780   21.2930 C   0  0  0  0  0  2  0  0  0  0  0  0
  -28.6020  -25.6420   20.4390 C   0  0  0  0  0  2  0  0  0  0  0  0
  -28.6050  -26.8790   19.7090 O   0  0  0  0  0  0  0  0  0  0  0  0
  -24.6660  -31.7370   23.0850 C   0  0  0  0  0  0  0  0  0  0  0  0
  -27.4160  -27.5650   19.7560 C   0  0  0  0  0  0  0  0  0  0  0  0
  -23.4760  -30.3310   21.4370 C   0  0  0  0  0  3  0  0  0  0  0  0
  -24.9520  -28.9300   19.9020 C   0  0  0  0  0  0  0  0  0  0  0  0
  -25.9690  -30.8350   21.1640 C   0  0  0  0  0  2  0  0  0  0  0  0
  -26.1010  -29.4970   20.4680 C   0  0  0  0  0  0  0  0  0  0  0  0
  -27.3400  -28.8230   20.3900 C   0  0  0  0  0  3  0  0  0  0  0  0
  -26.2550  -27.0080   19.1790 C   0  0  0  0  0  3  0  0  0  0  0  0
  -25.0230  -27.6850   19.2520 C   0  0  0  0  0  3  0  0  0  0  0  0
  -23.6680  -29.7180   20.0250 C   0  0  0  0  0  2  0  0  0  0  0  0
  -24.7250  -30.9760   21.9570 N   0  0  0  0  0  0  0  0  0  0  0  0
  -23.5860  -31.9550   23.6520 O   0  0  0  0  0  0  0  0  0  0  0  0
  -22.9140  -29.2400   22.3770 C   0  0  0  0  0  0  0  0  0  0  0  0
  -21.6070  -28.9600   22.2530 N   0  0  0  0  0  0  0  0  0  0  0  0
  -23.6510  -28.6490   23.1710 O   0  0  0  0  0  0  0  0  0  0  0  0
  -21.0700  -29.4970   21.5850 H   0  0  0  0  0  0  0  0  0  0  0  0
  -18.3470  -27.4720   22.7040 C   0  0  0  0  0  0  0  0  0  0  0  0
  -20.8690  -27.9440   23.0030 C   0  0  0  0  0  3  0  0  0  0  0  0
  -21.1010  -26.5370   22.4090 C   0  0  0  0  0  2  0  0  0  0  0  0
  -20.0390  -26.1340   21.3800 C   0  0  0  0  0  2  0  0  0  0  0  0
  -18.6450  -26.1520   22.0130 C   0  0  0  0  0  2  0  0  0  0  0  0
  -19.3920  -28.3210   23.1550 C   0  0  0  0  0  0  0  0  0  0  0  0
  -19.0620  -29.5530   23.7600 C   0  0  0  0  0  3  0  0  0  0  0  0
  -17.7190  -29.9390   23.9200 C   0  0  0  0  0  3  0  0  0  0  0  0
  -16.6870  -29.0890   23.4850 C   0  0  0  0  0  3  0  0  0  0  0  0
  -17.0010  -27.8570   22.8840 C   0  0  0  0  0  3  0  0  0  0  0  0
  -25.9410  -32.3990   23.6960 C   0  0  0  0  0  3  0  0  0  0  0  0
  -25.5840  -33.7700   24.0830 N   0  0  0  0  0  0  0  0  0  0  0  0
  -25.8590  -34.8590   23.3540 C   0  0  0  0  0  0  0  0  0  0  0  0
  -26.5140  -34.8190   22.3090 O   0  0  0  0  0  0  0  0  0  0  0  0
  -24.9950  -33.8730   24.8970 H   0  0  0  0  0  0  0  0  0  0  0  0
  -24.0570  -36.5900   23.0750 C   0  0  0  0  0  1  0  0  0  0  0  0
  -25.3190  -36.2080   23.8650 C   0  0  0  0  0  3  0  0  0  0  0  0
  -27.4160  -37.1500   24.7250 C   0  0  0  0  0  1  0  0  0  0  0  0
  -26.3090  -37.3060   23.7850 N   0  0  0  0  0  0  0  0  0  0  0  0
  -25.8660  -38.2040   23.9610 H   0  0  0  0  0  0  0  0  0  0  0  0
  -26.5340  -31.6090   24.9270 C   0  0  1  0  0  0  0  0  0  0  0  0
  -25.4890  -31.2900   26.0200 C   0  0  0  0  0  1  0  0  0  0  0  0
  -27.1630  -30.2730   24.4640 C   0  0  0  0  0  1  0  0  0  0  0  0
  -27.6740  -32.4300   25.5780 C   0  0  0  0  0  1  0  0  0  0  0  0
  -29.7630  -18.9930   19.0700 C   0  0  0  0  0  3  0  0  0  0  0  0
  -30.0200  -17.6880   19.3010 C   0  0  0  0  0  3  0  0  0  0  0  0
  -30.4730  -17.0110   20.5920 C   0  0  0  0  0  2  0  0  0  0  0  0
  -30.8050  -14.5860   20.0400 C   0  0  0  0  0  0  0  0  0  0  0  0
  -30.4850  -12.3930   18.9620 C   0  0  0  0  0  2  0  0  0  0  0  0
  -29.4770  -12.5470   17.8040 C   0  0  0  0  0  2  0  0  0  0  0  0
  -28.0290  -12.3980   18.3140 C   0  0  0  0  0  2  0  0  0  0  0  0
  -27.7450  -13.2760   19.5640 C   0  0  0  0  0  3  0  0  0  0  0  0
  -28.8590  -13.0940   20.6210 C   0  0  0  0  0  2  0  0  0  0  0  0
  -30.1500  -13.3970   19.9810 N   0  0  0  0  0  0  0  0  0  0  0  0
  -31.8840  -14.7930   19.4790 O   0  0  0  0  0  0  0  0  0  0  0  0
  -30.1210  -15.5850   20.6230 N   0  0  0  0  0  0  0  0  0  0  0  0
  -29.2430  -15.3340   21.0550 H   0  0  0  0  0  0  0  0  0  0  0  0
  -25.4230  -13.8830   20.4920 C   0  0  0  0  0  0  0  0  0  0  0  0
  -24.3650  -13.1100   20.8870 C   0  0  0  0  0  0  0  0  0  0  0  0
  -24.7870  -11.7540   20.7270 C   0  0  0  0  0  0  0  0  0  0  0  0
  -26.4240  -12.9990   20.1220 N   0  0  0  0  0  0  0  0  0  0  0  0
  -26.0490  -11.7090   20.3230 N   0  0  0  0  0  0  0  0  0  0  0  0
  -24.0460  -10.4960   20.8830 C   0  0  0  0  0  0  0  0  0  0  0  0
  -24.4740   -9.4930   21.7800 C   0  0  0  0  0  3  0  0  0  0  0  0
  -23.7350   -8.2980   21.9230 C   0  0  0  0  0  3  0  0  0  0  0  0
  -22.5540   -8.0980   21.1700 C   0  0  0  0  0  0  0  0  0  0  0  0
  -22.1460   -9.0910   20.2620 C   0  0  0  0  0  3  0  0  0  0  0  0
  -22.8850  -10.2760   20.1140 C   0  0  0  0  0  3  0  0  0  0  0  0
  -21.7860   -6.9600   21.2280 O   0  0  0  0  0  0  0  0  0  0  0  0
  -21.6860   -6.2150   22.3750 C   0  0  0  0  0  0  0  0  0  0  0  0
  -21.1630   -6.7570   23.5710 C   0  0  0  0  0  3  0  0  0  0  0  0
  -21.0120   -5.9370   24.7070 C   0  0  0  0  0  3  0  0  0  0  0  0
  -21.3740   -4.5790   24.6500 C   0  0  0  0  0  0  0  0  0  0  0  0
  -21.8910   -4.0370   23.4600 C   0  0  0  0  0  3  0  0  0  0  0  0
  -22.0430   -4.8530   22.3250 C   0  0  0  0  0  0  0  0  0  0  0  0
  -22.5210   -4.3210   21.1740 F   0  0  0  0  0  0  0  0  0  0  0  0
  -21.2230   -3.7890   25.7390 F   0  0  0  0  0  0  0  0  0  0  0  0
  -23.0040  -13.5940   21.2960 C   0  0  0  0  0  0  0  0  0  0  0  0
  -22.3200  -12.8510   22.1600 N   0  0  0  0  0  0  0  0  0  0  0  0
  -22.5550  -14.6620   20.8830 O   0  0  0  0  0  0  0  0  0  0  0  0
  -22.6940  -11.9820   22.5150 H   0  0  0  0  0  0  0  0  0  0  0  0
  -21.4090  -13.1570   22.4740 H   0  0  0  0  0  0  0  0  0  0  0  0
  -25.6160  -15.2600   20.3950 N   0  0  0  0  0  0  0  0  0  0  0  0
  -24.8880  -15.9340   20.6040 H   0  0  0  0  0  0  0  0  0  0  0  0
  -26.4590  -15.6910   20.0370 H   0  0  0  0  0  0  0  0  0  0  0  0
  2  1  2  0
  3  4  2  0
  4  1  1  0
  4  8  1  0
  5  2  1  0
  6  5  2  0
  6  3  1  0
  7  6  1  0
  8 10  2  0
  9  8  1  0
  9 11  1  0
 12  9  1  0
 13 12  1  0
 14 16  1  0
 14 13  1  0
 15 26  2  0
 16 21  1  0
 17 25  1  0
 17 27  1  0
 18 24  1  0
 18 20  1  0
 19 25  1  0
 20 19  1  0
 21 20  2  0
 22 23  1  0
 22 16  2  0
 23 18  2  0
 24 17  1  0
 25 15  1  0
 27 29  2  0
 28 27  1  0
 30 28  1  0
 31 40  2  0
 31 36  1  0
 32 28  1  0
 32 36  1  0
 33 32  1  0
 34 35  1  0
 34 33  1  0
 35 31  1  0
 36 37  2  0
 37 38  1  0
 39 38  2  0
 40 39  1  0
 41 15  1  0
 41 42  1  0
 41 51  1  0
 42 45  1  0
 43 47  1  0
 43 42  1  0
 44 43  2  0
 47 46  1  0
 49 47  1  0
 49 50  1  0
 49 48  1  0
 51 54  1  1
 51 52  1  0
 53 51  1  0
 55 56  2  0
 55  5  1  0
 56 57  1  0
 57 66  1  0
 58 66  1  0
 59 64  1  0
 60 61  1  0
 60 59  1  0
 62 61  1  0
 62 71  1  0
 62 63  1  0
 64 58  1  0
 64 63  1  0
 65 58  2  0
 66 67  1  0
 68 69  2  0
 69 88  1  0
 70 73  1  0
 70 69  1  0
 71 72  1  0
 71 68  1  0
 72 70  2  0
 73 74  1  0
 74 75  2  0
 76 79  1  0
 76 75  1  0
 77 76  2  0
 78 77  1  0
 78 73  2  0
 79 80  1  0
 80 81  1  0
 81 82  2  0
 83 82  1  0
 83 87  1  0
 84 83  2  0
 85 80  2  0
 85 84  1  0
 86 85  1  0
 88 89  1  0
 89 92  1  0
 89 91  1  0
 90 88  2  0
 93 68  1  0
 93 94  1  0
 95 93  1  0
M  ISO  4  13 101  14 101  58 100  66 100
M  END
>  <TORSDO>  (42) 
F 21

>  <SCORE>  (42) 
-12.633

>  <name>  (42) 
41

>  <ligand_id>  (42) 
41

>  <original_smiles>  (42) 
[H]C(=C([H])C([H])([H])N([H])C(=O)N1C([H])([H])C([H])([H])C([H])([H])C([H])(n2nc(-c3c([H])c([H])c(Oc4c([H])c([H])c(F)c([H])c4F)c([H])c3[H])c(C(=O)N([H])[H])c2N([H])[H])C1([H])[H])c1c([H])c([H])c(C(=O)N([H])C([H])([H])C([H])([H])Oc2c([H])c([H])c3c(c2[H])C([H])([H])N(C(=O)C([H])(N([H])C(=O)C([H])(N([H])C([H])([H])[H])C([H])([H])[H])C(C([H])([H])[H])(C([H])([H])[H])C([H])([H])[H])C([H])(C(=O)N([H])C2([H])c4c([H])c([H])c([H])c([H])c4C([H])([H])C([H])([H])C2([H])[H])C3([H])[H])c([H])c1C([H])([H])[H]

>  <smiles>  (42) 
[H]C(=C([H])C([H])([H])N([H])C(=O)N1C([H])([H])C([H])([H])C([H])([H])C([H])(n2nc(-c3c([H])c([H])c(Oc4c([H])c([H])c(F)c([H])c4F)c([H])c3[H])c(C(=O)N([H])[H])c2N([H])[H])C1([H])[H])c1c([H])c([H])c(C(=O)N([H])C([H])([H])C([H])([H])Oc2c([H])c([H])c3c(c2[H])C([H])([H])N(C(=O)C([H])(N([H])C(=O)C([H])(N([H])C([H])([H])[H])C([H])([H])[H])C(C([H])([H])[H])(C([H])([H])[H])C([H])([H])[H])C([H])(C(=O)N([H])C2([H])c4c([H])c([H])c([H])c([H])c4C([H])([H])C([H])([H])C2([H])[H])C3([H])[H])c([H])c1C([H])([H])[H]

$$$$
42:0:0
     RDKit          3D

 91100  0  0  1  0  0  0  0  0999 V2000
  -29.9190  -20.7600   19.5960 C   0  0  0  0  0  3  0  0  0  0  0  0
  -29.8390  -22.0970   19.7320 C   0  0  0  0  0  3  0  0  0  0  0  0
  -29.3870  -19.5140   20.3320 C   0  0  0  0  0  2  0  0  0  0  0  0
  -31.1820  -22.3540   19.0860 C   0  0  0  0  0  2  0  0  0  0  0  0
  -32.1620  -19.9320   19.8520 C   0  0  0  0  0  2  0  0  0  0  0  0
  -31.6820  -18.4680   19.7890 C   0  0  0  0  0  2  0  0  0  0  0  0
  -31.2860  -20.7970   18.9580 C   0  0  0  0  0  3  0  0  0  0  0  0
  -30.2290  -18.2690   20.1150 N   0  0  1  0  0  4  0  0  0  0  0  0
  -29.8660  -17.9220   19.2400 H   0  0  0  0  0  0  0  0  0  0  0  0
  -29.0240  -23.1110   20.5430 C   0  0  0  0  0  2  0  0  0  0  0  0
  -28.1680  -24.1290   19.7140 C   0  0  0  0  0  2  0  0  0  0  0  0
  -28.7310  -25.5470   19.3450 C   0  0  0  0  0  2  0  0  0  0  0  0
  -28.4590  -26.6690   20.2230 O   0  0  0  0  0  0  0  0  0  0  0  0
  -24.5970  -31.8870   23.2230 C   0  0  0  0  0  0  0  0  0  0  0  0
  -27.2740  -27.3990   20.1550 C   0  0  0  0  0  0  0  0  0  0  0  0
  -23.4020  -30.4720   21.5830 C   0  0  0  0  0  3  0  0  0  0  0  0
  -24.8650  -28.9270   20.1590 C   0  0  0  0  0  0  0  0  0  0  0  0
  -25.9280  -30.8150   21.4090 C   0  0  0  0  0  2  0  0  0  0  0  0
  -26.0160  -29.4400   20.7650 C   0  0  0  0  0  0  0  0  0  0  0  0
  -27.2140  -28.6800   20.7690 C   0  0  0  0  0  3  0  0  0  0  0  0
  -26.1030  -26.9200   19.5210 C   0  0  0  0  0  3  0  0  0  0  0  0
  -24.9050  -27.6680   19.5330 C   0  0  0  0  0  3  0  0  0  0  0  0
  -23.6190  -29.7840   20.2080 C   0  0  0  0  0  2  0  0  0  0  0  0
  -24.6600  -31.0690   22.1330 N   0  0  0  0  0  0  0  0  0  0  0  0
  -23.5090  -32.1880   23.7310 O   0  0  0  0  0  0  0  0  0  0  0  0
  -22.7420  -29.4610   22.5490 C   0  0  0  0  0  0  0  0  0  0  0  0
  -21.4170  -29.2840   22.4320 N   0  0  0  0  0  0  0  0  0  0  0  0
  -23.4270  -28.8390   23.3670 O   0  0  0  0  0  0  0  0  0  0  0  0
  -20.9230  -29.8450   21.7490 H   0  0  0  0  0  0  0  0  0  0  0  0
  -18.0410  -28.1010   22.9410 C   0  0  0  0  0  0  0  0  0  0  0  0
  -20.6020  -28.3470   23.2040 C   0  0  0  0  0  3  0  0  0  0  0  0
  -20.6940  -26.9140   22.6260 C   0  0  0  0  0  2  0  0  0  0  0  0
  -19.5900  -26.5990   21.6120 C   0  0  0  0  0  2  0  0  0  0  0  0
  -18.2080  -26.7550   22.2530 C   0  0  0  0  0  2  0  0  0  0  0  0
  -19.1660  -28.8560   23.3720 C   0  0  0  0  0  0  0  0  0  0  0  0
  -18.9540  -30.1190   23.9680 C   0  0  0  0  0  3  0  0  0  0  0  0
  -17.6530  -30.6230   24.1420 C   0  0  0  0  0  3  0  0  0  0  0  0
  -16.5440  -29.8630   23.7250 C   0  0  0  0  0  3  0  0  0  0  0  0
  -16.7400  -28.6040   23.1310 C   0  0  0  0  0  3  0  0  0  0  0  0
  -25.8840  -32.5130   23.8560 C   0  0  0  0  0  3  0  0  0  0  0  0
  -25.5790  -33.9100   24.1850 N   0  0  0  0  0  0  0  0  0  0  0  0
  -25.9110  -34.9620   23.4260 C   0  0  0  0  0  0  0  0  0  0  0  0
  -26.5760  -34.8570   22.3900 O   0  0  0  0  0  0  0  0  0  0  0  0
  -25.0030  -34.0710   24.9990 H   0  0  0  0  0  0  0  0  0  0  0  0
  -24.1800  -36.7500   23.0790 C   0  0  0  0  0  1  0  0  0  0  0  0
  -25.4260  -36.3500   23.8840 C   0  0  0  0  0  3  0  0  0  0  0  0
  -27.5610  -37.2330   24.7060 C   0  0  0  0  0  1  0  0  0  0  0  0
  -26.4570  -37.4020   23.7650 N   0  0  0  0  0  0  0  0  0  0  0  0
  -26.0550  -38.3220   23.9140 H   0  0  0  0  0  0  0  0  0  0  0  0
  -26.4000  -31.7420   25.1330 C   0  0  1  0  0  0  0  0  0  0  0  0
  -25.3050  -31.5160   26.2000 C   0  0  0  0  0  1  0  0  0  0  0  0
  -26.9810  -30.3620   24.7470 C   0  0  0  0  0  1  0  0  0  0  0  0
  -27.5520  -32.5310   25.7990 C   0  0  0  0  0  1  0  0  0  0  0  0
  -30.0130  -17.1650   21.1170 C   0  0  0  0  0  2  0  0  0  0  0  0
  -29.5330  -15.7970   20.5410 C   0  0  0  0  0  2  0  0  0  0  0  0
  -30.5180  -14.5820   20.4380 C   0  0  0  0  0  0  0  0  0  0  0  0
  -30.3900  -12.3760   19.3480 C   0  0  0  0  0  2  0  0  0  0  0  0
  -29.4220  -12.5430   18.1520 C   0  0  0  0  0  2  0  0  0  0  0  0
  -27.9470  -12.3690   18.5760 C   0  0  0  0  0  2  0  0  0  0  0  0
  -27.5970  -13.2080   19.8320 C   0  0  0  0  0  3  0  0  0  0  0  0
  -28.6610  -12.9600   20.9270 C   0  0  0  0  0  2  0  0  0  0  0  0
  -29.9750  -13.3320   20.3840 N   0  0  0  0  0  0  0  0  0  0  0  0
  -31.6970  -14.7940   20.1290 O   0  0  0  0  0  0  0  0  0  0  0  0
  -25.2060  -13.8470   20.5480 C   0  0  0  0  0  0  0  0  0  0  0  0
  -24.1350  -13.0820   20.9210 C   0  0  0  0  0  0  0  0  0  0  0  0
  -24.5900  -11.7270   20.8960 C   0  0  0  0  0  0  0  0  0  0  0  0
  -26.2450  -12.9570   20.3170 N   0  0  0  0  0  0  0  0  0  0  0  0
  -25.8780  -11.6810   20.5850 N   0  0  0  0  0  0  0  0  0  0  0  0
  -23.8620  -10.4680   21.0810 C   0  0  0  0  0  0  0  0  0  0  0  0
  -24.2980   -9.4930   22.0040 C   0  0  0  0  0  3  0  0  0  0  0  0
  -23.5740   -8.2960   22.1770 C   0  0  0  0  0  3  0  0  0  0  0  0
  -22.3940   -8.0660   21.4280 C   0  0  0  0  0  0  0  0  0  0  0  0
  -21.9740   -9.0310   20.4930 C   0  0  0  0  0  3  0  0  0  0  0  0
  -22.7040  -10.2210   20.3170 C   0  0  0  0  0  3  0  0  0  0  0  0
  -21.6350   -6.9250   21.5160 O   0  0  0  0  0  0  0  0  0  0  0  0
  -21.6050   -6.1700   22.6620 C   0  0  0  0  0  0  0  0  0  0  0  0
  -21.2110   -6.7110   23.9030 C   0  0  0  0  0  3  0  0  0  0  0  0
  -21.1260   -5.8800   25.0380 C   0  0  0  0  0  3  0  0  0  0  0  0
  -21.4250   -4.5080   24.9310 C   0  0  0  0  0  0  0  0  0  0  0  0
  -21.8160   -3.9680   23.6930 C   0  0  0  0  0  3  0  0  0  0  0  0
  -21.9000   -4.7960   22.5610 C   0  0  0  0  0  0  0  0  0  0  0  0
  -22.2540   -4.2650   21.3650 F   0  0  0  0  0  0  0  0  0  0  0  0
  -21.3380   -3.7060   26.0190 F   0  0  0  0  0  0  0  0  0  0  0  0
  -22.7370  -13.5620   21.1900 C   0  0  0  0  0  0  0  0  0  0  0  0
  -22.0000  -12.8700   22.0500 N   0  0  0  0  0  0  0  0  0  0  0  0
  -22.3050  -14.5870   20.6640 O   0  0  0  0  0  0  0  0  0  0  0  0
  -22.3630  -12.0430   22.5030 H   0  0  0  0  0  0  0  0  0  0  0  0
  -21.0570  -13.1690   22.2590 H   0  0  0  0  0  0  0  0  0  0  0  0
  -25.3760  -15.2170   20.3660 N   0  0  0  0  0  0  0  0  0  0  0  0
  -24.6040  -15.8660   20.4530 H   0  0  0  0  0  0  0  0  0  0  0  0
  -26.2200  -15.6470   20.0190 H   0  0  0  0  0  0  0  0  0  0  0  0
  1  2  1  0
  1  3  1  0
  2 10  1  0
  4  2  1  0
  6  5  1  0
  6  8  1  0
  7  4  1  0
  7  1  1  0
  7  5  1  0
  8  3  1  0
  8 54  1  0
  8  9  1  6
 11 10  1  0
 12 11  1  0
 12 13  1  0
 14 25  2  0
 15 13  1  0
 15 20  1  0
 16 24  1  0
 16 26  1  0
 17 23  1  0
 17 19  1  0
 18 24  1  0
 19 20  2  0
 19 18  1  0
 21 22  1  0
 21 15  2  0
 22 17  2  0
 23 16  1  0
 24 14  1  0
 26 28  2  0
 27 26  1  0
 29 27  1  0
 30 39  2  0
 30 35  1  0
 31 27  1  0
 31 35  1  0
 32 31  1  0
 33 34  1  0
 33 32  1  0
 34 30  1  0
 35 36  2  0
 36 37  1  0
 38 37  2  0
 39 38  1  0
 40 14  1  0
 40 41  1  0
 40 50  1  0
 41 44  1  0
 42 46  1  0
 42 41  1  0
 43 42  2  0
 46 45  1  0
 48 46  1  0
 48 49  1  0
 48 47  1  0
 50 53  1  1
 50 51  1  0
 52 50  1  0
 55 54  1  0
 56 55  1  0
 57 62  1  0
 58 59  1  0
 58 57  1  0
 60 59  1  0
 60 67  1  0
 60 61  1  0
 62 56  1  0
 62 61  1  0
 63 56  2  0
 64 65  2  0
 65 84  1  0
 66 65  1  0
 66 69  1  0
 67 64  1  0
 67 68  1  0
 68 66  2  0
 69 70  1  0
 70 71  2  0
 72 75  1  0
 72 71  1  0
 73 72  2  0
 74 73  1  0
 74 69  2  0
 75 76  1  0
 76 77  1  0
 77 78  2  0
 79 78  1  0
 79 83  1  0
 80 79  2  0
 81 76  2  0
 81 80  1  0
 82 81  1  0
 84 85  1  0
 85 88  1  0
 85 87  1  0
 86 84  2  0
 89 90  1  0
 89 64  1  0
 91 89  1  0
M  ISO  4  12 101  13 101  55 100  56 100
M  END
>  <TORSDO>  (43) 
F 21

>  <SCORE>  (43) 
-13.492

>  <name>  (43) 
42

>  <ligand_id>  (43) 
42

>  <original_smiles>  (43) 
[H]c1c([H])c([H])c2c(c1[H])C([H])([H])C([H])([H])C([H])([H])C2([H])N([H])C(=O)C1([H])N(C(=O)C([H])(N([H])C(=O)C([H])(N([H])C([H])([H])[H])C([H])([H])[H])C(C([H])([H])[H])(C([H])([H])[H])C([H])([H])[H])C([H])([H])c2c([H])c(OC([H])([H])C([H])([H])C([H])([H])C3=C4C([H])(C3([H])[H])C([H])([H])C([H])([H])[N+]([H])(C([H])([H])C([H])([H])C(=O)N3C([H])([H])C([H])([H])C([H])([H])C([H])(n5nc(-c6c([H])c([H])c(Oc7c([H])c([H])c(F)c([H])c7F)c([H])c6[H])c(C(=O)N([H])[H])c5N([H])[H])C3([H])[H])C4([H])[H])c([H])c([H])c2C1([H])[H]

>  <smiles>  (43) 
[H]c1c([H])c([H])c2c(c1[H])C([H])([H])C([H])([H])C([H])([H])C2([H])N([H])C(=O)C1([H])N(C(=O)C([H])(N([H])C(=O)C([H])(N([H])C([H])([H])[H])C([H])([H])[H])C(C([H])([H])[H])(C([H])([H])[H])C([H])([H])[H])C([H])([H])c2c([H])c(OC([H])([H])C([H])([H])C([H])([H])C3=C4C([H])(C3([H])[H])C([H])([H])C([H])([H])[N+]([H])(C([H])([H])C([H])([H])C(=O)N3C([H])([H])C([H])([H])C([H])([H])C([H])(n5nc(-c6c([H])c([H])c(Oc7c([H])c([H])c(F)c([H])c7F)c([H])c6[H])c(C(=O)N([H])[H])c5N([H])[H])C3([H])[H])C4([H])[H])c([H])c([H])c2C1([H])[H]

$$$$
43:0:0
     RDKit          3D

 93102  0  0  1  0  0  0  0  0999 V2000
  -29.2870  -21.3630   20.3720 N   0  0  0  0  0  4  0  0  0  0  0  0
  -30.2590  -21.5730   20.2100 H   0  0  0  0  0  0  0  0  0  0  0  0
  -29.1950  -21.0730   21.3330 H   0  0  0  0  0  0  0  0  0  0  0  0
  -30.7900  -14.6640   20.4140 C   0  0  0  0  0  0  0  0  0  0  0  0
  -30.4150  -12.4510   19.3610 C   0  0  0  0  0  2  0  0  0  0  0  0
  -29.4730  -12.5250   18.1460 C   0  0  0  0  0  2  0  0  0  0  0  0
  -28.0160  -12.3290   18.5990 C   0  0  0  0  0  2  0  0  0  0  0  0
  -27.6480  -13.2300   19.8040 C   0  0  0  0  0  3  0  0  0  0  0  0
  -28.7280  -13.1840   20.9140 C   0  0  0  0  0  2  0  0  0  0  0  0
  -30.0130  -13.5320   20.2930 N   0  0  0  0  0  0  0  0  0  0  0  0
  -31.9890  -14.5680   20.1420 O   0  0  0  0  0  0  0  0  0  0  0  0
  -29.7450  -19.2560   17.3620 C   0  0  0  0  0  2  0  0  0  0  0  0
  -29.2450  -20.5470   17.9990 C   0  0  0  0  0  2  0  0  0  0  0  0
  -29.2760  -18.1560   18.3020 C   0  0  0  0  0  2  0  0  0  0  0  0
  -30.7990  -18.5610   20.2990 C   0  0  0  0  0  2  0  0  0  0  0  0
  -28.5270  -17.8980   20.7070 C   0  0  0  0  0  2  0  0  0  0  0  0
  -31.2740  -17.0740   20.3900 C   0  0  0  0  0  2  0  0  0  0  0  0
  -28.8590  -16.3710   20.6820 C   0  0  0  0  0  2  0  0  0  0  0  0
  -28.8860  -20.2280   19.4720 C   0  0  0  0  0  3  0  0  0  0  0  0
  -29.3810  -18.7380   19.7350 C   0  0  2  0  0  0  0  0  0  0  0  0
  -30.2810  -15.9560   20.5680 N   0  0  0  0  0  0  0  0  0  0  0  0
  -25.2780  -13.8450   20.5620 C   0  0  0  0  0  0  0  0  0  0  0  0
  -24.2110  -13.0710   20.9310 C   0  0  0  0  0  0  0  0  0  0  0  0
  -24.6720  -11.7200   20.8930 C   0  0  0  0  0  0  0  0  0  0  0  0
  -26.3150  -12.9590   20.3140 N   0  0  0  0  0  0  0  0  0  0  0  0
  -25.9600  -11.6780   20.5790 N   0  0  0  0  0  0  0  0  0  0  0  0
  -23.9500  -10.4580   21.0760 C   0  0  0  0  0  0  0  0  0  0  0  0
  -24.3900   -9.4820   21.9960 C   0  0  0  0  0  3  0  0  0  0  0  0
  -23.6670   -8.2830   22.1680 C   0  0  0  0  0  3  0  0  0  0  0  0
  -22.4910   -8.0520   21.4170 C   0  0  0  0  0  0  0  0  0  0  0  0
  -22.0710   -9.0150   20.4830 C   0  0  0  0  0  3  0  0  0  0  0  0
  -22.7940  -10.2060   20.3100 C   0  0  0  0  0  3  0  0  0  0  0  0
  -21.7380   -6.9040   21.4980 O   0  0  0  0  0  0  0  0  0  0  0  0
  -21.6960   -6.1520   22.6440 C   0  0  0  0  0  0  0  0  0  0  0  0
  -21.2570   -6.6930   23.8740 C   0  0  0  0  0  3  0  0  0  0  0  0
  -21.1620   -5.8660   25.0110 C   0  0  0  0  0  3  0  0  0  0  0  0
  -21.4970   -4.5010   24.9200 C   0  0  0  0  0  0  0  0  0  0  0  0
  -21.9300   -3.9620   23.6960 C   0  0  0  0  0  3  0  0  0  0  0  0
  -22.0260   -4.7860   22.5610 C   0  0  0  0  0  0  0  0  0  0  0  0
  -22.4230   -4.2570   21.3780 F   0  0  0  0  0  0  0  0  0  0  0  0
  -21.3990   -3.7050   26.0100 F   0  0  0  0  0  0  0  0  0  0  0  0
  -22.8160  -13.5490   21.2100 C   0  0  0  0  0  0  0  0  0  0  0  0
  -22.0890  -12.8480   22.0710 N   0  0  0  0  0  0  0  0  0  0  0  0
  -22.3780  -14.5790   20.6980 O   0  0  0  0  0  0  0  0  0  0  0  0
  -22.4560  -12.0160   22.5090 H   0  0  0  0  0  0  0  0  0  0  0  0
  -21.1530  -13.1510   22.3010 H   0  0  0  0  0  0  0  0  0  0  0  0
  -25.4440  -15.2150   20.3910 N   0  0  0  0  0  0  0  0  0  0  0  0
  -24.6800  -15.8700   20.5160 H   0  0  0  0  0  0  0  0  0  0  0  0
  -26.2950  -15.6560   20.0720 H   0  0  0  0  0  0  0  0  0  0  0  0
  -28.4470  -22.5990   20.1620 C   0  0  0  0  0  2  0  0  0  0  0  0
  -29.0440  -24.0170   20.5020 C   0  0  0  0  0  2  0  0  0  0  0  0
  -28.0440  -25.1390   20.0520 C   0  0  0  0  0  2  0  0  0  0  0  0
  -28.3150  -26.5620   20.2590 O   0  0  0  0  0  0  0  0  0  0  0  0
  -24.5990  -31.9130   23.2670 C   0  0  0  0  0  0  0  0  0  0  0  0
  -27.1950  -27.3970   20.1870 C   0  0  0  0  0  0  0  0  0  0  0  0
  -23.3850  -30.5110   21.6390 C   0  0  0  0  0  3  0  0  0  0  0  0
  -24.8260  -28.9780   20.2000 C   0  0  0  0  0  0  0  0  0  0  0  0
  -25.9230  -30.8400   21.4430 C   0  0  0  0  0  2  0  0  0  0  0  0
  -25.9960  -29.4700   20.7910 C   0  0  0  0  0  0  0  0  0  0  0  0
  -27.1850  -28.6890   20.7820 C   0  0  0  0  0  3  0  0  0  0  0  0
  -26.0040  -26.9610   19.5540 C   0  0  0  0  0  3  0  0  0  0  0  0
  -24.8280  -27.7260   19.5750 C   0  0  0  0  0  3  0  0  0  0  0  0
  -23.5890  -29.8450   20.2550 C   0  0  0  0  0  2  0  0  0  0  0  0
  -24.6550  -31.1000   22.1750 N   0  0  0  0  0  0  0  0  0  0  0  0
  -23.5150  -32.2150   23.7830 O   0  0  0  0  0  0  0  0  0  0  0  0
  -22.7320  -29.4870   22.5980 C   0  0  0  0  0  0  0  0  0  0  0  0
  -21.4080  -29.2960   22.4670 N   0  0  0  0  0  0  0  0  0  0  0  0
  -23.4140  -28.8680   23.4190 O   0  0  0  0  0  0  0  0  0  0  0  0
  -20.9180  -29.8490   21.7770 H   0  0  0  0  0  0  0  0  0  0  0  0
  -18.0350  -28.0870   22.9600 C   0  0  0  0  0  0  0  0  0  0  0  0
  -20.5920  -28.3570   23.2360 C   0  0  0  0  0  3  0  0  0  0  0  0
  -20.7020  -26.9250   22.6640 C   0  0  0  0  0  2  0  0  0  0  0  0
  -19.6030  -26.5950   21.6490 C   0  0  0  0  0  2  0  0  0  0  0  0
  -18.2190  -26.7360   22.2890 C   0  0  0  0  0  2  0  0  0  0  0  0
  -19.1500  -28.8540   23.3900 C   0  0  0  0  0  0  0  0  0  0  0  0
  -18.9240  -30.1190   23.9780 C   0  0  0  0  0  3  0  0  0  0  0  0
  -17.6170  -30.6150   24.1380 C   0  0  0  0  0  3  0  0  0  0  0  0
  -16.5170  -29.8440   23.7230 C   0  0  0  0  0  3  0  0  0  0  0  0
  -16.7270  -28.5820   23.1390 C   0  0  0  0  0  3  0  0  0  0  0  0
  -25.8880  -32.5310   23.8920 C   0  0  0  0  0  3  0  0  0  0  0  0
  -26.4010  -31.7600   25.1690 C   0  0  1  0  0  0  0  0  0  0  0  0
  -25.3050  -31.5270   26.2370 C   0  0  0  0  0  1  0  0  0  0  0  0
  -26.9810  -30.3790   24.7830 C   0  0  0  0  0  1  0  0  0  0  0  0
  -27.5520  -32.5530   25.8320 C   0  0  0  0  0  1  0  0  0  0  0  0
  -25.5880  -33.9320   24.2170 N   0  0  0  0  0  0  0  0  0  0  0  0
  -25.9110  -34.9780   23.4450 C   0  0  0  0  0  0  0  0  0  0  0  0
  -26.5650  -34.8650   22.4040 O   0  0  0  0  0  0  0  0  0  0  0  0
  -25.0020  -34.0940   25.0230 H   0  0  0  0  0  0  0  0  0  0  0  0
  -24.1760  -36.7680   23.1060 C   0  0  0  0  0  1  0  0  0  0  0  0
  -25.4310  -36.3690   23.8990 C   0  0  0  0  0  3  0  0  0  0  0  0
  -27.5780  -37.2610   24.6880 C   0  0  0  0  0  1  0  0  0  0  0  0
  -26.4620  -37.4210   23.7600 N   0  0  0  0  0  0  0  0  0  0  0  0
  -26.0580  -38.3430   23.9040 H   0  0  0  0  0  0  0  0  0  0  0  0
  1  3  1  0
  2  1  1  0
  4 21  1  0
  5 10  1  0
  6  7  1  0
  6  5  1  0
  8  7  1  0
  8 25  1  0
  8  9  1  0
 10  4  1  0
 10  9  1  0
 11  4  2  0
 12 13  1  0
 12 14  1  0
 13 19  1  0
 15 17  1  0
 17 21  1  0
 18 16  1  0
 19 20  1  0
 19  1  1  0
 20 14  1  6
 20 15  1  0
 20 16  1  0
 21 18  1  0
 22 23  2  0
 23 42  1  0
 24 23  1  0
 24 27  1  0
 25 22  1  0
 25 26  1  0
 26 24  2  0
 27 28  1  0
 28 29  2  0
 30 33  1  0
 30 29  1  0
 31 30  2  0
 32 31  1  0
 32 27  2  0
 33 34  1  0
 34 35  1  0
 35 36  2  0
 37 36  1  0
 37 41  1  0
 38 37  2  0
 39 34  2  0
 39 38  1  0
 40 39  1  0
 42 43  1  0
 43 46  1  0
 43 45  1  0
 44 42  2  0
 47 48  1  0
 47 22  1  0
 49 47  1  0
 50  1  1  0
 50 51  1  0
 52 53  1  0
 52 51  1  0
 54 65  2  0
 55 53  1  0
 55 60  1  0
 56 64  1  0
 56 66  1  0
 57 63  1  0
 57 59  1  0
 58 64  1  0
 59 58  1  0
 60 59  2  0
 61 62  1  0
 61 55  2  0
 62 57  2  0
 63 56  1  0
 64 54  1  0
 66 68  2  0
 67 66  1  0
 69 67  1  0
 70 79  2  0
 70 75  1  0
 71 67  1  0
 71 75  1  0
 72 71  1  0
 73 74  1  0
 73 72  1  0
 74 70  1  0
 75 76  2  0
 76 77  1  0
 78 77  2  0
 79 78  1  0
 80 54  1  0
 80 85  1  0
 80 81  1  0
 81 84  1  1
 81 82  1  0
 83 81  1  0
 85 88  1  0
 86 90  1  0
 86 85  1  0
 87 86  2  0
 90 89  1  0
 92 90  1  0
 92 93  1  0
 92 91  1  0
M  ISO  4   4 100  21 100  52 101  53 101
M  END
>  <TORSDO>  (44) 
F 19

>  <SCORE>  (44) 
-14.353

>  <name>  (44) 
43

>  <ligand_id>  (44) 
43

>  <original_smiles>  (44) 
[H]c1c([H])c([H])c2c(c1[H])C([H])([H])C([H])([H])C([H])([H])C2([H])N([H])C(=O)C1([H])N(C(=O)C([H])(N([H])C(=O)C([H])(N([H])C([H])([H])[H])C([H])([H])[H])C(C([H])([H])[H])(C([H])([H])[H])C([H])([H])[H])C([H])([H])c2c([H])c(OC([H])([H])C([H])([H])C([H])([H])[N+]([H])([H])C3([H])C([H])([H])C([H])([H])C([H])([H])C34C([H])([H])C([H])([H])N(C(=O)N3C([H])([H])C([H])([H])C([H])([H])C([H])(n5nc(-c6c([H])c([H])c(Oc7c([H])c([H])c(F)c([H])c7F)c([H])c6[H])c(C(=O)N([H])[H])c5N([H])[H])C3([H])[H])C([H])([H])C4([H])[H])c([H])c([H])c2C1([H])[H]

>  <smiles>  (44) 
[H]c1c([H])c([H])c2c(c1[H])C([H])([H])C([H])([H])C([H])([H])C2([H])N([H])C(=O)C1([H])N(C(=O)C([H])(N([H])C(=O)C([H])(N([H])C([H])([H])[H])C([H])([H])[H])C(C([H])([H])[H])(C([H])([H])[H])C([H])([H])[H])C([H])([H])c2c([H])c(OC([H])([H])C([H])([H])C([H])([H])[N+]([H])([H])C3([H])C([H])([H])C([H])([H])C([H])([H])C34C([H])([H])C([H])([H])N(C(=O)N3C([H])([H])C([H])([H])C([H])([H])C([H])(n5nc(-c6c([H])c([H])c(Oc7c([H])c([H])c(F)c([H])c7F)c([H])c6[H])c(C(=O)N([H])[H])c5N([H])[H])C3([H])[H])C([H])([H])C4([H])[H])c([H])c([H])c2C1([H])[H]

$$$$
44:0:0
     RDKit          3D

 93102  0  0  1  0  0  0  0  0999 V2000
  -27.6220  -25.2320   21.6210 C   0  0  0  0  0  3  0  0  0  0  0  0
  -27.5060  -23.9700   22.2310 C   0  0  0  0  0  3  0  0  0  0  0  0
  -28.6920  -24.1680   19.7150 C   0  0  0  0  0  3  0  0  0  0  0  0
  -28.5880  -22.8580   20.3240 C   0  0  0  0  0  0  0  0  0  0  0  0
  -28.2100  -25.3740   20.3450 C   0  0  0  0  0  0  0  0  0  0  0  0
  -27.9820  -22.8040   21.6040 C   0  0  0  0  0  0  0  0  0  0  0  0
  -27.8520  -21.6370   22.2730 F   0  0  0  0  0  0  0  0  0  0  0  0
  -28.3220  -26.6690   19.7890 O   0  0  0  0  0  0  0  0  0  0  0  0
  -24.6940  -31.9120   23.1780 C   0  0  0  0  0  0  0  0  0  0  0  0
  -27.2200  -27.5270   19.8370 C   0  0  0  0  0  0  0  0  0  0  0  0
  -23.4400  -30.5700   21.5280 C   0  0  0  0  0  3  0  0  0  0  0  0
  -24.8480  -29.0970   19.9830 C   0  0  0  0  0  0  0  0  0  0  0  0
  -25.9680  -30.9170   21.2710 C   0  0  0  0  0  2  0  0  0  0  0  0
  -26.0320  -29.5740   20.5620 C   0  0  0  0  0  0  0  0  0  0  0  0
  -27.2240  -28.7970   20.4840 C   0  0  0  0  0  3  0  0  0  0  0  0
  -26.0210  -27.0990   19.2330 C   0  0  0  0  0  3  0  0  0  0  0  0
  -24.8420  -27.8640   19.3090 C   0  0  0  0  0  3  0  0  0  0  0  0
  -23.6070  -29.9560   20.1130 C   0  0  0  0  0  2  0  0  0  0  0  0
  -24.7220  -31.1440   22.0510 N   0  0  0  0  0  0  0  0  0  0  0  0
  -23.6230  -32.1860   23.7380 O   0  0  0  0  0  0  0  0  0  0  0  0
  -22.8190  -29.5080   22.4660 C   0  0  0  0  0  0  0  0  0  0  0  0
  -21.4940  -29.3070   22.3590 N   0  0  0  0  0  0  0  0  0  0  0  0
  -23.5260  -28.8690   23.2490 O   0  0  0  0  0  0  0  0  0  0  0  0
  -20.9810  -29.8770   21.7010 H   0  0  0  0  0  0  0  0  0  0  0  0
  -18.1530  -28.0160   22.8660 C   0  0  0  0  0  0  0  0  0  0  0  0
  -20.7100  -28.3260   23.1100 C   0  0  0  0  0  3  0  0  0  0  0  0
  -20.8350  -26.9150   22.4890 C   0  0  0  0  0  2  0  0  0  0  0  0
  -19.7270  -26.5990   21.4790 C   0  0  0  0  0  2  0  0  0  0  0  0
  -18.3520  -26.6920   22.1470 C   0  0  0  0  0  2  0  0  0  0  0  0
  -19.2610  -28.7910   23.3040 C   0  0  0  0  0  0  0  0  0  0  0  0
  -19.0200  -30.0290   23.9380 C   0  0  0  0  0  3  0  0  0  0  0  0
  -17.7070  -30.4940   24.1370 C   0  0  0  0  0  3  0  0  0  0  0  0
  -16.6150  -29.7160   23.7140 C   0  0  0  0  0  3  0  0  0  0  0  0
  -16.8390  -28.4790   23.0840 C   0  0  0  0  0  3  0  0  0  0  0  0
  -25.9980  -32.5130   23.7910 C   0  0  0  0  0  3  0  0  0  0  0  0
  -25.7060  -33.9030   24.1740 N   0  0  0  0  0  0  0  0  0  0  0  0
  -26.0180  -34.9750   23.4340 C   0  0  0  0  0  0  0  0  0  0  0  0
  -26.6520  -34.8990   22.3790 O   0  0  0  0  0  0  0  0  0  0  0  0
  -25.1380  -34.0350   24.9980 H   0  0  0  0  0  0  0  0  0  0  0  0
  -24.2880  -36.7840   23.1820 C   0  0  0  0  0  1  0  0  0  0  0  0
  -25.5500  -36.3520   23.9460 C   0  0  0  0  0  3  0  0  0  0  0  0
  -27.7060  -37.2070   24.7510 C   0  0  0  0  0  1  0  0  0  0  0  0
  -26.5850  -37.4030   23.8360 N   0  0  0  0  0  0  0  0  0  0  0  0
  -26.1860  -38.3210   24.0130 H   0  0  0  0  0  0  0  0  0  0  0  0
  -26.5420  -31.7020   25.0310 C   0  0  1  0  0  0  0  0  0  0  0  0
  -25.4730  -31.4320   26.1140 C   0  0  0  0  0  1  0  0  0  0  0  0
  -27.1140  -30.3360   24.5840 C   0  0  0  0  0  1  0  0  0  0  0  0
  -27.7100  -32.4740   25.6900 C   0  0  0  0  0  1  0  0  0  0  0  0
  -29.1750  -21.5510   19.6550 C   0  0  0  0  0  2  0  0  0  0  0  0
  -29.2240  -19.3520   21.2630 C   0  0  0  0  0  2  0  0  0  0  0  0
  -28.4620  -19.0370   18.9070 C   0  0  0  0  0  2  0  0  0  0  0  0
  -30.4450  -18.4100   21.0170 C   0  0  0  0  0  2  0  0  0  0  0  0
  -29.6890  -18.1260   18.6010 C   0  0  0  0  0  2  0  0  0  0  0  0
  -28.6060  -20.1020   20.0400 C   0  0  0  0  0  3  0  0  0  0  0  0
  -30.3890  -17.4310   19.8070 C   0  0  0  0  0  3  0  0  0  0  0  0
  -30.7880  -14.8750   19.8560 C   0  0  0  0  0  0  0  0  0  0  0  0
  -30.5610  -12.5840   18.9410 C   0  0  0  0  0  2  0  0  0  0  0  0
  -29.5470  -12.6130   17.7780 C   0  0  0  0  0  2  0  0  0  0  0  0
  -28.1130  -12.4210   18.3090 C   0  0  0  0  0  2  0  0  0  0  0  0
  -27.7930  -13.3400   19.5180 C   0  0  0  0  0  3  0  0  0  0  0  0
  -28.9230  -13.3150   20.5720 C   0  0  0  0  0  2  0  0  0  0  0  0
  -30.1760  -13.6510   19.8860 N   0  0  0  0  0  0  0  0  0  0  0  0
  -31.9400  -14.9880   19.4270 O   0  0  0  0  0  0  0  0  0  0  0  0
  -30.0190  -15.9910   20.0900 N   0  0  0  0  0  0  0  0  0  0  0  0
  -29.0780  -15.8190   20.4080 H   0  0  0  0  0  0  0  0  0  0  0  0
  -25.4750  -13.8900   20.4750 C   0  0  0  0  0  0  0  0  0  0  0  0
  -24.4410  -13.0960   20.8910 C   0  0  0  0  0  0  0  0  0  0  0  0
  -24.8960  -11.7490   20.7480 C   0  0  0  0  0  0  0  0  0  0  0  0
  -26.4930  -13.0270   20.1040 N   0  0  0  0  0  0  0  0  0  0  0  0
  -26.1560  -11.7300   20.3290 N   0  0  0  0  0  0  0  0  0  0  0  0
  -24.1840  -10.4760   20.9290 C   0  0  0  0  0  0  0  0  0  0  0  0
  -24.5990   -9.5290   21.8900 C   0  0  0  0  0  3  0  0  0  0  0  0
  -23.8880   -8.3210   22.0580 C   0  0  0  0  0  3  0  0  0  0  0  0
  -22.7460   -8.0530   21.2660 C   0  0  0  0  0  0  0  0  0  0  0  0
  -22.3510   -8.9900   20.2950 C   0  0  0  0  0  3  0  0  0  0  0  0
  -23.0640  -10.1890   20.1250 C   0  0  0  0  0  3  0  0  0  0  0  0
  -22.0090   -6.8960   21.3410 O   0  0  0  0  0  0  0  0  0  0  0  0
  -21.8100   -6.2470   22.5330 C   0  0  0  0  0  0  0  0  0  0  0  0
  -21.1890   -6.8790   23.6320 C   0  0  0  0  0  3  0  0  0  0  0  0
  -20.9410   -6.1530   24.8140 C   0  0  0  0  0  3  0  0  0  0  0  0
  -21.3050   -4.7960   24.8960 C   0  0  0  0  0  0  0  0  0  0  0  0
  -21.9180   -4.1630   23.8020 C   0  0  0  0  0  3  0  0  0  0  0  0
  -22.1680   -4.8870   22.6220 C   0  0  0  0  0  0  0  0  0  0  0  0
  -22.7400   -4.2660   21.5620 F   0  0  0  0  0  0  0  0  0  0  0  0
  -21.0600   -4.0950   26.0280 F   0  0  0  0  0  0  0  0  0  0  0  0
  -23.0730  -13.5540   21.3050 C   0  0  0  0  0  0  0  0  0  0  0  0
  -22.4250  -12.8190   22.2000 N   0  0  0  0  0  0  0  0  0  0  0  0
  -22.5910  -14.5990   20.8690 O   0  0  0  0  0  0  0  0  0  0  0  0
  -22.8270  -11.9710   22.5730 H   0  0  0  0  0  0  0  0  0  0  0  0
  -21.5100  -13.1080   22.5190 H   0  0  0  0  0  0  0  0  0  0  0  0
  -25.6280  -15.2690   20.3600 N   0  0  0  0  0  0  0  0  0  0  0  0
  -26.4420  -15.7280   19.9750 H   0  0  0  0  0  0  0  0  0  0  0  0
  -24.8770  -15.9130   20.5810 H   0  0  0  0  0  0  0  0  0  0  0  0
  1  2  1  0
  3  4  2  0
  3  5  1  0
  4  6  1  0
  5  1  2  0
  6  2  2  0
  6  7  1  0
  8 10  1  0
  8  5  1  0
  9 20  2  0
 10 15  1  0
 11 19  1  0
 11 21  1  0
 12 18  1  0
 12 14  1  0
 13 19  1  0
 14 13  1  0
 15 14  2  0
 16 17  1  0
 16 10  2  0
 17 12  2  0
 18 11  1  0
 19  9  1  0
 21 23  2  0
 22 21  1  0
 24 22  1  0
 25 34  2  0
 25 30  1  0
 26 22  1  0
 26 30  1  0
 27 26  1  0
 28 29  1  0
 28 27  1  0
 29 25  1  0
 30 31  2  0
 31 32  1  0
 33 32  2  0
 34 33  1  0
 35  9  1  0
 35 36  1  0
 35 45  1  0
 36 39  1  0
 37 41  1  0
 37 36  1  0
 38 37  2  0
 41 40  1  0
 43 41  1  0
 43 44  1  0
 43 42  1  0
 45 48  1  1
 45 46  1  0
 47 45  1  0
 49  4  1  0
 51 54  1  0
 52 50  1  0
 53 51  1  0
 53 55  1  0
 54 49  1  0
 54 50  1  0
 55 64  1  0
 55 52  1  0
 56 62  1  0
 56 64  1  0
 57 62  1  0
 58 59  1  0
 58 57  1  0
 60 59  1  0
 60 69  1  0
 60 61  1  0
 62 61  1  0
 63 56  2  0
 64 65  1  0
 66 67  2  0
 67 86  1  0
 68 67  1  0
 68 71  1  0
 69 70  1  0
 69 66  1  0
 70 68  2  0
 71 72  1  0
 72 73  2  0
 74 77  1  0
 74 73  1  0
 75 74  2  0
 76 75  1  0
 76 71  2  0
 77 78  1  0
 78 83  2  0
 78 79  1  0
 79 80  2  0
 80 81  1  0
 81 85  1  0
 82 81  2  0
 83 82  1  0
 84 83  1  0
 86 87  1  0
 87 90  1  0
 87 89  1  0
 88 86  2  0
 91 66  1  0
 91 93  1  0
 92 91  1  0
M  ISO  4   5 101   8 101  56 100  64 100
M  END
>  <TORSDO>  (45) 
F 18

>  <SCORE>  (45) 
-13.580

>  <name>  (45) 
44

>  <ligand_id>  (45) 
44

>  <original_smiles>  (45) 
[H]c1c([H])c([H])c2c(c1[H])C([H])([H])C([H])([H])C([H])([H])C2([H])N([H])C(=O)C1([H])N(C(=O)C([H])(N([H])C(=O)C([H])(N([H])C([H])([H])[H])C([H])([H])[H])C(C([H])([H])[H])(C([H])([H])[H])C([H])([H])[H])C([H])([H])c2c([H])c(Oc3c([H])c([H])c(F)c(C([H])([H])C4([H])C([H])([H])C([H])([H])C([H])(N([H])C(=O)N5C([H])([H])C([H])([H])C([H])([H])C([H])(n6nc(-c7c([H])c([H])c(Oc8c([H])c([H])c(F)c([H])c8F)c([H])c7[H])c(C(=O)N([H])[H])c6N([H])[H])C5([H])[H])C([H])([H])C4([H])[H])c3[H])c([H])c([H])c2C1([H])[H]

>  <smiles>  (45) 
[H]c1c([H])c([H])c2c(c1[H])C([H])([H])C([H])([H])C([H])([H])C2([H])N([H])C(=O)C1([H])N(C(=O)C([H])(N([H])C(=O)C([H])(N([H])C([H])([H])[H])C([H])([H])[H])C(C([H])([H])[H])(C([H])([H])[H])C([H])([H])[H])C([H])([H])c2c([H])c(Oc3c([H])c([H])c(F)c(C([H])([H])C4([H])C([H])([H])C([H])([H])C([H])(N([H])C(=O)N5C([H])([H])C([H])([H])C([H])([H])C([H])(n6nc(-c7c([H])c([H])c(Oc8c([H])c([H])c(F)c([H])c8F)c([H])c7[H])c(C(=O)N([H])[H])c6N([H])[H])C5([H])[H])C([H])([H])C4([H])[H])c3[H])c([H])c([H])c2C1([H])[H]

$$$$
45:0:0
     RDKit          3D

 94103  0  0  1  0  0  0  0  0999 V2000
  -30.7230  -14.5490   20.4290 C   0  0  0  0  0  0  0  0  0  0  0  0
  -30.4210  -12.3390   19.4100 C   0  0  0  0  0  2  0  0  0  0  0  0
  -29.5110  -12.4920   18.1750 C   0  0  0  0  0  2  0  0  0  0  0  0
  -28.0300  -12.3600   18.5800 C   0  0  0  0  0  2  0  0  0  0  0  0
  -27.6580  -13.2540   19.7950 C   0  0  0  0  0  3  0  0  0  0  0  0
  -28.6950  -13.1060   20.9320 C   0  0  0  0  0  2  0  0  0  0  0  0
  -30.0180  -13.3870   20.3600 N   0  0  0  0  0  0  0  0  0  0  0  0
  -31.9440  -14.5590   20.2430 O   0  0  0  0  0  0  0  0  0  0  0  0
  -29.5710  -20.9340   21.4900 C   0  0  0  0  0  2  0  0  0  0  0  0
  -30.2840  -19.5710   21.3460 C   0  0  0  0  0  2  0  0  0  0  0  0
  -28.6630  -17.7910   20.5160 C   0  0  0  0  0  2  0  0  0  0  0  0
  -31.0030  -17.9080   19.5730 C   0  0  0  0  0  2  0  0  0  0  0  0
  -30.0850  -21.0880   18.9930 C   0  0  0  0  0  2  0  0  0  0  0  0
  -29.1060  -16.3810   21.0100 C   0  0  0  0  0  2  0  0  0  0  0  0
  -30.5610  -16.5400   19.0150 C   0  0  0  0  0  2  0  0  0  0  0  0
  -29.2810  -19.7650   19.0040 C   0  0  0  0  0  3  0  0  0  0  0  0
  -29.9220  -21.8850   20.3160 C   0  0  0  0  0  3  0  0  0  0  0  0
  -29.8110  -18.7570   20.0960 C   0  0  2  0  0  0  0  0  0  0  0  0
  -29.1200  -19.1980   17.5780 C   0  0  0  0  0  1  0  0  0  0  0  0
  -30.0280  -15.6750   20.0900 N   0  0  0  0  0  0  0  0  0  0  0  0
  -25.2550  -13.8850   20.4590 C   0  0  0  0  0  0  0  0  0  0  0  0
  -24.1760  -13.1220   20.8170 C   0  0  0  0  0  0  0  0  0  0  0  0
  -24.6300  -11.7680   20.8140 C   0  0  0  0  0  0  0  0  0  0  0  0
  -26.2980  -12.9940   20.2610 N   0  0  0  0  0  0  0  0  0  0  0  0
  -25.9260  -11.7190   20.5330 N   0  0  0  0  0  0  0  0  0  0  0  0
  -23.8950  -10.5110   21.0070 C   0  0  0  0  0  0  0  0  0  0  0  0
  -24.3080   -9.5530   21.9580 C   0  0  0  0  0  3  0  0  0  0  0  0
  -23.5750   -8.3610   22.1390 C   0  0  0  0  0  3  0  0  0  0  0  0
  -22.4150   -8.1180   21.3670 C   0  0  0  0  0  0  0  0  0  0  0  0
  -22.0200   -9.0650   20.4060 C   0  0  0  0  0  3  0  0  0  0  0  0
  -22.7550  -10.2490   20.2230 C   0  0  0  0  0  3  0  0  0  0  0  0
  -21.6570   -6.9760   21.4520 O   0  0  0  0  0  0  0  0  0  0  0  0
  -21.5820   -6.2460   22.6100 C   0  0  0  0  0  0  0  0  0  0  0  0
  -21.1330   -6.8170   23.8220 C   0  0  0  0  0  3  0  0  0  0  0  0
  -21.0080   -6.0150   24.9740 C   0  0  0  0  0  3  0  0  0  0  0  0
  -21.3180   -4.6440   24.9140 C   0  0  0  0  0  0  0  0  0  0  0  0
  -21.7600   -4.0720   23.7070 C   0  0  0  0  0  3  0  0  0  0  0  0
  -21.8880   -4.8710   22.5580 C   0  0  0  0  0  0  0  0  0  0  0  0
  -22.2940   -4.3120   21.3930 F   0  0  0  0  0  0  0  0  0  0  0  0
  -21.1880   -3.8720   26.0180 F   0  0  0  0  0  0  0  0  0  0  0  0
  -22.7740  -13.6090   21.0530 C   0  0  0  0  0  0  0  0  0  0  0  0
  -22.0280  -12.9300   21.9140 N   0  0  0  0  0  0  0  0  0  0  0  0
  -22.3510  -14.6270   20.5050 O   0  0  0  0  0  0  0  0  0  0  0  0
  -22.3860  -12.1110   22.3820 H   0  0  0  0  0  0  0  0  0  0  0  0
  -21.0830  -13.2330   22.1090 H   0  0  0  0  0  0  0  0  0  0  0  0
  -25.4340  -15.2510   20.2640 N   0  0  0  0  0  0  0  0  0  0  0  0
  -24.6750  -15.9170   20.3620 H   0  0  0  0  0  0  0  0  0  0  0  0
  -26.2970  -15.6740   19.9470 H   0  0  0  0  0  0  0  0  0  0  0  0
  -28.8950  -22.9450   20.1700 N   0  0  0  0  0  4  0  0  0  0  0  0
  -28.1880  -22.8000   20.8740 H   0  0  0  0  0  0  0  0  0  0  0  0
  -28.4490  -22.8010   19.2770 H   0  0  0  0  0  0  0  0  0  0  0  0
  -29.3540  -24.3620   20.2510 C   0  0  0  0  0  2  0  0  0  0  0  0
  -28.2240  -25.2990   19.7820 C   0  0  0  0  0  2  0  0  0  0  0  0
  -28.4070  -26.7070   20.0270 O   0  0  0  0  0  0  0  0  0  0  0  0
  -24.6130  -31.8640   23.1890 C   0  0  0  0  0  0  0  0  0  0  0  0
  -27.2470  -27.4680   20.0060 C   0  0  0  0  0  0  0  0  0  0  0  0
  -23.4070  -30.4850   21.5340 C   0  0  0  0  0  3  0  0  0  0  0  0
  -24.8540  -28.9890   20.0680 C   0  0  0  0  0  0  0  0  0  0  0  0
  -25.9360  -30.8420   21.3400 C   0  0  0  0  0  2  0  0  0  0  0  0
  -26.0180  -29.4900   20.6620 C   0  0  0  0  0  0  0  0  0  0  0  0
  -27.2190  -28.7400   20.6260 C   0  0  0  0  0  3  0  0  0  0  0  0
  -26.0560  -26.9980   19.3940 C   0  0  0  0  0  3  0  0  0  0  0  0
  -24.8690  -27.7410   19.4310 C   0  0  0  0  0  3  0  0  0  0  0  0
  -23.6100  -29.8440   20.1390 C   0  0  0  0  0  2  0  0  0  0  0  0
  -24.6720  -31.0730   22.0800 N   0  0  0  0  0  0  0  0  0  0  0  0
  -23.5290  -32.1530   23.7120 O   0  0  0  0  0  0  0  0  0  0  0  0
  -22.7620  -29.4390   22.4720 C   0  0  0  0  0  0  0  0  0  0  0  0
  -21.4360  -29.2600   22.3480 N   0  0  0  0  0  0  0  0  0  0  0  0
  -23.4510  -28.7920   23.2660 O   0  0  0  0  0  0  0  0  0  0  0  0
  -20.9390  -29.8390   21.6840 H   0  0  0  0  0  0  0  0  0  0  0  0
  -18.0620  -28.0680   22.8510 C   0  0  0  0  0  0  0  0  0  0  0  0
  -20.6240  -28.3050   23.1030 C   0  0  0  0  0  3  0  0  0  0  0  0
  -20.7100  -26.8900   22.4870 C   0  0  0  0  0  2  0  0  0  0  0  0
  -19.5960  -26.6000   21.4750 C   0  0  0  0  0  2  0  0  0  0  0  0
  -18.2240  -26.7360   22.1390 C   0  0  0  0  0  2  0  0  0  0  0  0
  -19.1890  -28.8130   23.2890 C   0  0  0  0  0  0  0  0  0  0  0  0
  -18.9830  -30.0630   23.9130 C   0  0  0  0  0  3  0  0  0  0  0  0
  -17.6840  -30.5690   24.1000 C   0  0  0  0  0  3  0  0  0  0  0  0
  -16.5710  -29.8210   23.6790 C   0  0  0  0  0  3  0  0  0  0  0  0
  -16.7620  -28.5700   23.0620 C   0  0  0  0  0  3  0  0  0  0  0  0
  -25.9020  -32.4750   23.8220 C   0  0  0  0  0  3  0  0  0  0  0  0
  -25.5990  -33.8660   24.1760 N   0  0  0  0  0  0  0  0  0  0  0  0
  -25.9140  -34.9290   23.4260 C   0  0  0  0  0  0  0  0  0  0  0  0
  -26.5660  -34.8400   22.3820 O   0  0  0  0  0  0  0  0  0  0  0  0
  -25.0170  -34.0060   24.9890 H   0  0  0  0  0  0  0  0  0  0  0  0
  -24.1630  -36.7060   23.1270 C   0  0  0  0  0  1  0  0  0  0  0  0
  -25.4270  -36.3080   23.9060 C   0  0  0  0  0  3  0  0  0  0  0  0
  -27.5730  -37.1990   24.6990 C   0  0  0  0  0  1  0  0  0  0  0  0
  -26.4490  -37.3700   23.7790 N   0  0  0  0  0  0  0  0  0  0  0  0
  -26.0430  -38.2870   23.9440 H   0  0  0  0  0  0  0  0  0  0  0  0
  -26.4230  -31.6820   25.0840 C   0  0  1  0  0  0  0  0  0  0  0  0
  -25.3290  -31.4230   26.1480 C   0  0  0  0  0  1  0  0  0  0  0  0
  -27.0040  -30.3120   24.6640 C   0  0  0  0  0  1  0  0  0  0  0  0
  -27.5770  -32.4600   25.7560 C   0  0  0  0  0  1  0  0  0  0  0  0
  2  7  1  0
  3  4  1  0
  3  2  1  0
  5  4  1  0
  5 24  1  0
  5  6  1  0
  7  1  1  0
  7  6  1  0
  8  1  2  0
 10  9  1  0
 11 14  1  0
 13 16  1  0
 13 17  1  0
 15 12  1  0
 15 20  1  0
 16 19  1  0
 16 18  1  0
 17 49  1  0
 17  9  1  0
 18 12  1  6
 18 11  1  0
 18 10  1  0
 20  1  1  0
 20 14  1  0
 21 22  2  0
 22 41  1  0
 23 22  1  0
 23 26  1  0
 24 21  1  0
 24 25  1  0
 25 23  2  0
 26 27  1  0
 27 28  2  0
 29 32  1  0
 29 28  1  0
 30 29  2  0
 31 30  1  0
 31 26  2  0
 32 33  1  0
 33 34  1  0
 34 35  2  0
 36 35  1  0
 36 40  1  0
 37 36  2  0
 38 33  2  0
 38 37  1  0
 39 38  1  0
 41 42  1  0
 42 45  1  0
 42 44  1  0
 43 41  2  0
 46 47  1  0
 46 21  1  0
 48 46  1  0
 49 52  1  0
 49 50  1  0
 51 49  1  0
 53 54  1  0
 53 52  1  0
 55 66  2  0
 56 54  1  0
 56 61  1  0
 57 65  1  0
 57 67  1  0
 58 64  1  0
 58 60  1  0
 59 65  1  0
 60 59  1  0
 61 60  2  0
 62 63  1  0
 62 56  2  0
 63 58  2  0
 64 57  1  0
 65 55  1  0
 67 69  2  0
 68 67  1  0
 70 68  1  0
 71 80  2  0
 71 76  1  0
 72 68  1  0
 72 76  1  0
 73 72  1  0
 74 75  1  0
 74 73  1  0
 75 71  1  0
 76 77  2  0
 77 78  1  0
 79 78  2  0
 80 79  1  0
 81 55  1  0
 81 82  1  0
 81 91  1  0
 82 85  1  0
 83 87  1  0
 83 82  1  0
 84 83  2  0
 87 86  1  0
 89 87  1  0
 89 90  1  0
 89 88  1  0
 91 94  1  1
 91 92  1  0
 93 91  1  0
M  ISO  4   1 100  20 100  53 101  54 101
M  END
>  <TORSDO>  (46) 
F 18

>  <SCORE>  (46) 
-14.792

>  <name>  (46) 
45

>  <ligand_id>  (46) 
45

>  <original_smiles>  (46) 
[H]c1c([H])c([H])c2c(c1[H])C([H])([H])C([H])([H])C([H])([H])C2([H])N([H])C(=O)C1([H])N(C(=O)C([H])(N([H])C(=O)C([H])(N([H])C([H])([H])[H])C([H])([H])[H])C(C([H])([H])[H])(C([H])([H])[H])C([H])([H])[H])C([H])([H])c2c([H])c(OC([H])([H])C([H])([H])[N+]([H])([H])C3([H])C([H])([H])C([H])([H])C4(C([H])([H])C([H])([H])N(C(=O)N5C([H])([H])C([H])([H])C([H])([H])C([H])(n6nc(-c7c([H])c([H])c(Oc8c([H])c([H])c(F)c([H])c8F)c([H])c7[H])c(C(=O)N([H])[H])c6N([H])[H])C5([H])[H])C([H])([H])C4([H])[H])C([H])(C([H])([H])[H])C3([H])[H])c([H])c([H])c2C1([H])[H]

>  <smiles>  (46) 
[H]c1c([H])c([H])c2c(c1[H])C([H])([H])C([H])([H])C([H])([H])C2([H])N([H])C(=O)C1([H])N(C(=O)C([H])(N([H])C(=O)C([H])(N([H])C([H])([H])[H])C([H])([H])[H])C(C([H])([H])[H])(C([H])([H])[H])C([H])([H])[H])C([H])([H])c2c([H])c(OC([H])([H])C([H])([H])[N+]([H])([H])C3([H])C([H])([H])C([H])([H])C4(C([H])([H])C([H])([H])N(C(=O)N5C([H])([H])C([H])([H])C([H])([H])C([H])(n6nc(-c7c([H])c([H])c(Oc8c([H])c([H])c(F)c([H])c8F)c([H])c7[H])c(C(=O)N([H])[H])c6N([H])[H])C5([H])[H])C([H])([H])C4([H])[H])C([H])(C([H])([H])[H])C3([H])[H])c([H])c([H])c2C1([H])[H]

$$$$
46:0:0
     RDKit          3D

 92100  0  0  1  0  0  0  0  0999 V2000
  -28.9420  -22.8420   21.9660 C   0  0  0  0  0  3  0  0  0  0  0  0
  -28.7910  -25.2790   21.8050 C   0  0  0  0  0  3  0  0  0  0  0  0
  -28.5700  -22.6720   20.6160 C   0  0  0  0  0  0  0  0  0  0  0  0
  -28.3020  -23.8900   19.8610 C   0  0  0  0  0  0  0  0  0  0  0  0
  -29.0590  -24.1210   22.5640 C   0  0  0  0  0  0  0  0  0  0  0  0
  -28.4150  -25.2160   20.4470 C   0  0  0  0  0  0  0  0  0  0  0  0
  -27.8750  -23.7820   18.4070 C   0  0  0  0  0  1  0  0  0  0  0  0
  -30.0710  -23.2440   24.5620 C   0  0  0  0  0  1  0  0  0  0  0  0
  -29.4310  -24.3160   23.8780 O   0  0  0  0  0  0  0  0  0  0  0  0
  -28.2940  -26.4480   19.7530 O   0  0  0  0  0  0  0  0  0  0  0  0
  -24.6170  -31.7320   23.1400 C   0  0  0  0  0  0  0  0  0  0  0  0
  -27.1680  -27.2750   19.8740 C   0  0  0  0  0  0  0  0  0  0  0  0
  -23.3740  -30.3640   21.5050 C   0  0  0  0  0  3  0  0  0  0  0  0
  -24.7930  -28.8650   19.9900 C   0  0  0  0  0  0  0  0  0  0  0  0
  -25.9040  -30.7060   21.2540 C   0  0  0  0  0  2  0  0  0  0  0  0
  -25.9750  -29.3470   20.5670 C   0  0  0  0  0  0  0  0  0  0  0  0
  -27.1680  -28.5610   20.5010 C   0  0  0  0  0  3  0  0  0  0  0  0
  -25.9640  -26.8440   19.2830 C   0  0  0  0  0  3  0  0  0  0  0  0
  -24.7880  -27.6210   19.3390 C   0  0  0  0  0  3  0  0  0  0  0  0
  -23.5520  -29.7300   20.1000 C   0  0  0  0  0  2  0  0  0  0  0  0
  -24.6530  -30.9460   22.0260 N   0  0  0  0  0  0  0  0  0  0  0  0
  -23.5430  -32.0120   23.6910 O   0  0  0  0  0  0  0  0  0  0  0  0
  -22.7510  -29.3130   22.4550 C   0  0  0  0  0  0  0  0  0  0  0  0
  -21.4330  -29.0840   22.3240 N   0  0  0  0  0  0  0  0  0  0  0  0
  -23.4530  -28.7060   23.2680 O   0  0  0  0  0  0  0  0  0  0  0  0
  -20.9240  -29.6250   21.6400 H   0  0  0  0  0  0  0  0  0  0  0  0
  -18.1210  -27.6900   22.7480 C   0  0  0  0  0  0  0  0  0  0  0  0
  -20.6520  -28.1060   23.0830 C   0  0  0  0  0  3  0  0  0  0  0  0
  -20.8550  -26.6780   22.5250 C   0  0  0  0  0  2  0  0  0  0  0  0
  -19.8030  -26.2810   21.4860 C   0  0  0  0  0  2  0  0  0  0  0  0
  -18.3970  -26.3480   22.0910 C   0  0  0  0  0  2  0  0  0  0  0  0
  -19.1800  -28.5220   23.2000 C   0  0  0  0  0  0  0  0  0  0  0  0
  -18.8680  -29.7750   23.7720 C   0  0  0  0  0  3  0  0  0  0  0  0
  -17.5310  -30.1970   23.8980 C   0  0  0  0  0  3  0  0  0  0  0  0
  -16.4870  -29.3630   23.4620 C   0  0  0  0  0  3  0  0  0  0  0  0
  -16.7830  -28.1120   22.8930 C   0  0  0  0  0  3  0  0  0  0  0  0
  -25.9140  -32.3460   23.7530 C   0  0  0  0  0  3  0  0  0  0  0  0
  -25.6110  -33.7330   24.1330 N   0  0  0  0  0  0  0  0  0  0  0  0
  -25.9110  -34.8070   23.3910 C   0  0  0  0  0  0  0  0  0  0  0  0
  -26.5430  -34.7350   22.3340 O   0  0  0  0  0  0  0  0  0  0  0  0
  -25.0420  -33.8620   24.9570 H   0  0  0  0  0  0  0  0  0  0  0  0
  -24.1570  -36.5930   23.1490 C   0  0  0  0  0  1  0  0  0  0  0  0
  -25.4320  -36.1810   23.9010 C   0  0  0  0  0  3  0  0  0  0  0  0
  -27.5900  -37.0630   24.6710 C   0  0  0  0  0  1  0  0  0  0  0  0
  -26.4520  -37.2450   23.7730 N   0  0  0  0  0  0  0  0  0  0  0  0
  -26.0460  -38.1580   23.9560 H   0  0  0  0  0  0  0  0  0  0  0  0
  -26.4660  -31.5420   24.9950 C   0  0  1  0  0  0  0  0  0  0  0  0
  -25.4010  -31.2720   26.0820 C   0  0  0  0  0  1  0  0  0  0  0  0
  -27.0420  -30.1760   24.5520 C   0  0  0  0  0  1  0  0  0  0  0  0
  -27.6320  -32.3210   25.6480 C   0  0  0  0  0  1  0  0  0  0  0  0
  -28.3800  -21.1800   20.0930 C   0  0  0  0  0  3  0  0  0  0  0  0
  -29.3370  -19.9690   20.5750 C   0  0  0  0  0  3  0  0  0  0  0  0
  -28.9400  -18.4380   20.2570 C   0  0  0  0  0  3  0  0  0  0  0  0
  -30.0120  -17.2700   20.5420 C   0  0  0  0  0  3  0  0  0  0  0  0
  -30.3760  -14.7150   20.0810 C   0  0  0  0  0  0  0  0  0  0  0  0
  -30.1360  -12.4920   18.9810 C   0  0  0  0  0  2  0  0  0  0  0  0
  -29.1220  -12.6130   17.8240 C   0  0  0  0  0  2  0  0  0  0  0  0
  -27.6820  -12.4060   18.3360 C   0  0  0  0  0  2  0  0  0  0  0  0
  -27.3770  -13.2330   19.6130 C   0  0  0  0  0  3  0  0  0  0  0  0
  -28.5050  -13.1040   20.6600 C   0  0  0  0  0  2  0  0  0  0  0  0
  -29.7590  -13.4920   20.0020 N   0  0  0  0  0  0  0  0  0  0  0  0
  -31.5360  -14.8580   19.6860 O   0  0  0  0  0  0  0  0  0  0  0  0
  -29.6060  -15.8100   20.4190 N   0  0  0  0  0  0  0  0  0  0  0  0
  -28.6540  -15.5940   20.6770 H   0  0  0  0  0  0  0  0  0  0  0  0
  -25.0210  -13.7570   20.4880 C   0  0  0  0  0  0  0  0  0  0  0  0
  -23.9940  -12.9510   20.8990 C   0  0  0  0  0  0  0  0  0  0  0  0
  -24.4830  -11.6110   20.8090 C   0  0  0  0  0  0  0  0  0  0  0  0
  -26.0690  -12.9060   20.1720 N   0  0  0  0  0  0  0  0  0  0  0  0
  -25.7550  -11.6090   20.4260 N   0  0  0  0  0  0  0  0  0  0  0  0
  -23.7950  -10.3290   21.0080 C   0  0  0  0  0  0  0  0  0  0  0  0
  -24.2810   -9.3640   21.9170 C   0  0  0  0  0  3  0  0  0  0  0  0
  -23.5920   -8.1470   22.1040 C   0  0  0  0  0  3  0  0  0  0  0  0
  -22.4020   -7.8870   21.3840 C   0  0  0  0  0  0  0  0  0  0  0  0
  -21.9360   -8.8420   20.4640 C   0  0  0  0  0  3  0  0  0  0  0  0
  -22.6250  -10.0500   20.2740 C   0  0  0  0  0  3  0  0  0  0  0  0
  -21.6800   -6.7230   21.4850 O   0  0  0  0  0  0  0  0  0  0  0  0
  -21.6710   -5.9780   22.6360 C   0  0  0  0  0  0  0  0  0  0  0  0
  -21.2370   -6.5150   23.8690 C   0  0  0  0  0  3  0  0  0  0  0  0
  -21.1790   -5.6930   25.0120 C   0  0  0  0  0  3  0  0  0  0  0  0
  -21.5430   -4.3360   24.9250 C   0  0  0  0  0  0  0  0  0  0  0  0
  -21.9680   -3.7990   23.6970 C   0  0  0  0  0  3  0  0  0  0  0  0
  -22.0290   -4.6160   22.5560 C   0  0  0  0  0  0  0  0  0  0  0  0
  -22.4210   -4.0880   21.3710 F   0  0  0  0  0  0  0  0  0  0  0  0
  -21.4780   -3.5450   26.0210 F   0  0  0  0  0  0  0  0  0  0  0  0
  -22.6070  -13.3920   21.2600 C   0  0  0  0  0  0  0  0  0  0  0  0
  -21.9470  -12.6680   22.1580 N   0  0  0  0  0  0  0  0  0  0  0  0
  -22.1150  -14.4140   20.7820 O   0  0  0  0  0  0  0  0  0  0  0  0
  -22.3590  -11.8420   22.5680 H   0  0  0  0  0  0  0  0  0  0  0  0
  -21.0180  -12.9440   22.4410 H   0  0  0  0  0  0  0  0  0  0  0  0
  -25.1450  -15.1340   20.3340 N   0  0  0  0  0  0  0  0  0  0  0  0
  -24.3640  -15.7610   20.4950 H   0  0  0  0  0  0  0  0  0  0  0  0
  -25.9510  -15.6030   19.9430 H   0  0  0  0  0  0  0  0  0  0  0  0
  1  5  1  0
  2  5  2  0
  3  1  2  0
  4  6  2  0
  4  3  1  0
  5  9  1  0
  6  2  1  0
  7  4  1  0
  9  8  1  0
 10 12  1  0
 10  6  1  0
 11 22  2  0
 12 17  1  0
 13 21  1  0
 13 23  1  0
 14 20  1  0
 14 16  1  0
 15 21  1  0
 16 15  1  0
 17 16  2  0
 18 19  1  0
 18 12  2  0
 19 14  2  0
 20 13  1  0
 21 11  1  0
 23 25  2  0
 24 23  1  0
 26 24  1  0
 27 36  2  0
 27 32  1  0
 28 24  1  0
 28 32  1  0
 29 28  1  0
 30 31  1  0
 30 29  1  0
 31 27  1  0
 32 33  2  0
 33 34  1  0
 35 34  2  0
 36 35  1  0
 37 11  1  0
 37 38  1  0
 37 47  1  0
 38 41  1  0
 39 43  1  0
 39 38  1  0
 40 39  2  0
 43 42  1  0
 45 43  1  0
 45 46  1  0
 45 44  1  0
 47 50  1  1
 47 48  1  0
 49 47  1  0
 51 52  2  0
 51  3  1  0
 53 54  2  0
 53 52  1  0
 55 63  1  0
 56 61  1  0
 57 58  1  0
 57 56  1  0
 59 58  1  0
 59 68  1  0
 59 60  1  0
 61 55  1  0
 61 60  1  0
 62 55  2  0
 63 54  1  0
 63 64  1  0
 65 66  2  0
 66 85  1  0
 67 66  1  0
 67 70  1  0
 68 69  1  0
 68 65  1  0
 69 67  2  0
 70 71  1  0
 71 72  2  0
 73 76  1  0
 73 72  1  0
 74 73  2  0
 75 74  1  0
 75 70  2  0
 76 77  1  0
 77 78  1  0
 78 79  2  0
 80 79  1  0
 80 84  1  0
 81 80  2  0
 82 77  2  0
 82 81  1  0
 83 82  1  0
 85 86  1  0
 86 89  1  0
 86 88  1  0
 87 85  2  0
 90 65  1  0
 90 91  1  0
 92 90  1  0
M  ISO  4   6 101  10 101  55 100  63 100
M  END
>  <TORSDO>  (47) 
F 21

>  <SCORE>  (47) 
-12.550

>  <name>  (47) 
46

>  <ligand_id>  (47) 
46

>  <original_smiles>  (47) 
[H]c1c([H])c([H])c2c(c1[H])C([H])([H])C([H])([H])C([H])([H])C2([H])N([H])C(=O)C1([H])N(C(=O)C([H])(N([H])C(=O)C([H])(N([H])C([H])([H])[H])C([H])([H])[H])C(C([H])([H])[H])(C([H])([H])[H])C([H])([H])[H])C([H])([H])c2c([H])c(Oc3c([H])c(OC([H])([H])[H])c([H])c(C([H])([H])C([H])([H])C([H])([H])C([H])([H])N([H])C(=O)N4C([H])([H])C([H])([H])C([H])([H])C([H])(n5nc(-c6c([H])c([H])c(Oc7c([H])c([H])c(F)c([H])c7F)c([H])c6[H])c(C(=O)N([H])[H])c5N([H])[H])C4([H])[H])c3C([H])([H])[H])c([H])c([H])c2C1([H])[H]

>  <smiles>  (47) 
[H]c1c([H])c([H])c2c(c1[H])C([H])([H])C([H])([H])C([H])([H])C2([H])N([H])C(=O)C1([H])N(C(=O)C([H])(N([H])C(=O)C([H])(N([H])C([H])([H])[H])C([H])([H])[H])C(C([H])([H])[H])(C([H])([H])[H])C([H])([H])[H])C([H])([H])c2c([H])c(Oc3c([H])c(OC([H])([H])[H])c([H])c(C([H])([H])C([H])([H])C([H])([H])C([H])([H])N([H])C(=O)N4C([H])([H])C([H])([H])C([H])([H])C([H])(n5nc(-c6c([H])c([H])c(Oc7c([H])c([H])c(F)c([H])c7F)c([H])c6[H])c(C(=O)N([H])[H])c5N([H])[H])C4([H])[H])c3C([H])([H])[H])c([H])c([H])c2C1([H])[H]

$$$$
47:0:0
     RDKit          3D

 94103  0  0  1  0  0  0  0  0999 V2000
  -31.0130  -20.4410   19.7160 C   0  0  0  0  0  0  0  0  0  0  0  0
  -29.6780  -20.0270   19.1030 C   0  0  0  0  0  2  0  0  0  0  0  0
  -31.6480  -21.6350   19.0170 C   0  0  0  0  0  2  0  0  0  0  0  0
  -28.6540  -21.1760   19.0040 C   0  0  0  0  0  2  0  0  0  0  0  0
  -30.6250  -22.5840   18.3460 C   0  0  0  0  0  2  0  0  0  0  0  0
  -28.4620  -25.0210   18.4010 C   0  0  0  0  0  2  0  0  0  0  0  0
  -29.4900  -24.6540   20.6310 C   0  0  0  0  0  2  0  0  0  0  0  0
  -28.2570  -23.5110   18.2030 C   0  0  0  0  0  2  0  0  0  0  0  0
  -29.3060  -23.1320   20.4990 C   0  0  0  0  0  2  0  0  0  0  0  0
  -28.3510  -25.3590   19.8950 C   0  0  0  0  0  3  0  0  0  0  0  0
  -29.2300  -22.6180   19.0240 C   0  0  1  0  0  0  0  0  0  0  0  0
  -31.5870  -19.9310   20.7360 N   0  0  0  0  0  0  0  0  0  0  0  0
  -28.3980  -26.7640   20.1400 O   0  0  0  0  0  0  0  0  0  0  0  0
  -24.5840  -31.9000   23.2470 C   0  0  0  0  0  0  0  0  0  0  0  0
  -27.2020  -27.4570   20.1450 C   0  0  0  0  0  0  0  0  0  0  0  0
  -23.3660  -30.4960   21.6190 C   0  0  0  0  0  3  0  0  0  0  0  0
  -24.8040  -28.9580   20.1890 C   0  0  0  0  0  0  0  0  0  0  0  0
  -25.8930  -30.8450   21.4120 C   0  0  0  0  0  2  0  0  0  0  0  0
  -25.9680  -29.4790   20.7680 C   0  0  0  0  0  0  0  0  0  0  0  0
  -27.1680  -28.7360   20.7440 C   0  0  0  0  0  3  0  0  0  0  0  0
  -26.0110  -26.9480   19.5710 C   0  0  0  0  0  3  0  0  0  0  0  0
  -24.8190  -27.6900   19.5920 C   0  0  0  0  0  3  0  0  0  0  0  0
  -23.5640  -29.8180   20.2390 C   0  0  0  0  0  2  0  0  0  0  0  0
  -24.6330  -31.0920   22.1530 N   0  0  0  0  0  0  0  0  0  0  0  0
  -23.5010  -32.1980   23.7700 O   0  0  0  0  0  0  0  0  0  0  0  0
  -22.7180  -29.4740   22.5800 C   0  0  0  0  0  0  0  0  0  0  0  0
  -21.3940  -29.2890   22.4510 N   0  0  0  0  0  0  0  0  0  0  0  0
  -23.4020  -28.8500   23.3940 O   0  0  0  0  0  0  0  0  0  0  0  0
  -20.9030  -29.8450   21.7640 H   0  0  0  0  0  0  0  0  0  0  0  0
  -18.0190  -28.0980   22.9430 C   0  0  0  0  0  0  0  0  0  0  0  0
  -20.5760  -28.3530   23.2220 C   0  0  0  0  0  3  0  0  0  0  0  0
  -20.6790  -26.9210   22.6480 C   0  0  0  0  0  2  0  0  0  0  0  0
  -19.5790  -26.5970   21.6330 C   0  0  0  0  0  2  0  0  0  0  0  0
  -18.1950  -26.7460   22.2730 C   0  0  0  0  0  2  0  0  0  0  0  0
  -19.1370  -28.8590   23.3740 C   0  0  0  0  0  0  0  0  0  0  0  0
  -18.9190  -30.1260   23.9600 C   0  0  0  0  0  3  0  0  0  0  0  0
  -17.6150  -30.6300   24.1200 C   0  0  0  0  0  3  0  0  0  0  0  0
  -16.5110  -29.8650   23.7060 C   0  0  0  0  0  3  0  0  0  0  0  0
  -16.7140  -28.6020   23.1230 C   0  0  0  0  0  3  0  0  0  0  0  0
  -25.8760  -32.5170   23.8700 C   0  0  0  0  0  3  0  0  0  0  0  0
  -26.3950  -31.7390   25.1410 C   0  0  1  0  0  0  0  0  0  0  0  0
  -25.3040  -31.5030   26.2120 C   0  0  0  0  0  1  0  0  0  0  0  0
  -26.9710  -30.3600   24.7420 C   0  0  0  0  0  1  0  0  0  0  0  0
  -27.5510  -32.5260   25.8030 C   0  0  0  0  0  1  0  0  0  0  0  0
  -25.5780  -33.9150   24.2030 N   0  0  0  0  0  0  0  0  0  0  0  0
  -25.9080  -34.9630   23.4380 C   0  0  0  0  0  0  0  0  0  0  0  0
  -26.5720  -34.8560   22.4020 O   0  0  0  0  0  0  0  0  0  0  0  0
  -24.9920  -34.0740   25.0090 H   0  0  0  0  0  0  0  0  0  0  0  0
  -24.1810  -36.7560   23.0900 C   0  0  0  0  0  1  0  0  0  0  0  0
  -25.4280  -36.3540   23.8950 C   0  0  0  0  0  3  0  0  0  0  0  0
  -27.5710  -37.2330   24.7060 C   0  0  0  0  0  1  0  0  0  0  0  0
  -26.4610  -37.4040   23.7710 N   0  0  0  0  0  0  0  0  0  0  0  0
  -26.0590  -38.3250   23.9210 H   0  0  0  0  0  0  0  0  0  0  0  0
  -30.9440  -18.9280   21.5650 C   0  0  0  0  0  2  0  0  0  0  0  0
  -30.9960  -17.5140   20.9530 C   0  0  0  0  0  2  0  0  0  0  0  0
  -30.6880  -16.4410   22.0170 C   0  0  0  0  0  2  0  0  0  0  0  0
  -30.7220  -14.3850   20.5430 C   0  0  0  0  0  0  0  0  0  0  0  0
  -30.3570  -12.3420   19.2070 C   0  0  0  0  0  2  0  0  0  0  0  0
  -29.3990  -12.6100   18.0300 C   0  0  0  0  0  2  0  0  0  0  0  0
  -27.9280  -12.4740   18.4730 C   0  0  0  0  0  2  0  0  0  0  0  0
  -27.6190  -13.2630   19.7710 C   0  0  0  0  0  3  0  0  0  0  0  0
  -28.6740  -12.9470   20.8520 C   0  0  0  0  0  2  0  0  0  0  0  0
  -30.0070  -13.2580   20.3000 N   0  0  0  0  0  0  0  0  0  0  0  0
  -31.7690  -14.6700   19.9540 O   0  0  0  0  0  0  0  0  0  0  0  0
  -30.1860  -15.1780   21.4770 N   0  0  0  0  0  0  0  0  0  0  0  0
  -29.3240  -14.8390   21.8800 H   0  0  0  0  0  0  0  0  0  0  0  0
  -25.2210  -13.8860   20.4780 C   0  0  0  0  0  0  0  0  0  0  0  0
  -24.1520  -13.1180   20.8540 C   0  0  0  0  0  0  0  0  0  0  0  0
  -24.6090  -11.7660   20.8300 C   0  0  0  0  0  0  0  0  0  0  0  0
  -26.2630  -12.9990   20.2510 N   0  0  0  0  0  0  0  0  0  0  0  0
  -25.8980  -11.7200   20.5170 N   0  0  0  0  0  0  0  0  0  0  0  0
  -23.8810  -10.5060   21.0300 C   0  0  0  0  0  0  0  0  0  0  0  0
  -24.3230   -9.5370   21.9580 C   0  0  0  0  0  3  0  0  0  0  0  0
  -23.5980   -8.3410   22.1440 C   0  0  0  0  0  3  0  0  0  0  0  0
  -22.4160   -8.1060   21.4010 C   0  0  0  0  0  0  0  0  0  0  0  0
  -21.9930   -9.0630   20.4630 C   0  0  0  0  0  3  0  0  0  0  0  0
  -22.7190  -10.2510   20.2760 C   0  0  0  0  0  3  0  0  0  0  0  0
  -21.6590   -6.9610   21.4980 O   0  0  0  0  0  0  0  0  0  0  0  0
  -21.6320   -6.2110   22.6460 C   0  0  0  0  0  0  0  0  0  0  0  0
  -21.2460   -6.7640   23.8880 C   0  0  0  0  0  3  0  0  0  0  0  0
  -21.1650   -5.9410   25.0280 C   0  0  0  0  0  3  0  0  0  0  0  0
  -21.4570   -4.5670   24.9290 C   0  0  0  0  0  0  0  0  0  0  0  0
  -21.8370   -4.0150   23.6930 C   0  0  0  0  0  3  0  0  0  0  0  0
  -21.9210   -4.8350   22.5550 C   0  0  0  0  0  0  0  0  0  0  0  0
  -22.2650   -4.2940   21.3610 F   0  0  0  0  0  0  0  0  0  0  0  0
  -21.3720   -3.7750   26.0230 F   0  0  0  0  0  0  0  0  0  0  0  0
  -22.7550  -13.5990   21.1290 C   0  0  0  0  0  0  0  0  0  0  0  0
  -22.0290  -12.9080   22.0030 N   0  0  0  0  0  0  0  0  0  0  0  0
  -22.3170  -14.6220   20.6040 O   0  0  0  0  0  0  0  0  0  0  0  0
  -22.3980  -12.0830   22.4510 H   0  0  0  0  0  0  0  0  0  0  0  0
  -21.0920  -13.2100   22.2240 H   0  0  0  0  0  0  0  0  0  0  0  0
  -25.3910  -15.2550   20.2930 N   0  0  0  0  0  0  0  0  0  0  0  0
  -24.6310  -15.9170   20.3990 H   0  0  0  0  0  0  0  0  0  0  0  0
  -26.2500  -15.6860   19.9750 H   0  0  0  0  0  0  0  0  0  0  0  0
  1 12  2  0
  2  1  1  0
  3  1  1  0
 11  4  1  1
  4  2  1  0
  5  3  1  0
  5 11  1  0
  6 10  1  0
  8  6  1  0
  9  7  1  0
 10 13  1  0
 10  7  1  0
 11  8  1  0
 11  9  1  0
 12 54  1  0
 13 15  1  0
 14 25  2  0
 15 20  1  0
 16 24  1  0
 16 26  1  0
 17 23  1  0
 17 19  1  0
 18 24  1  0
 19 18  1  0
 20 19  2  0
 21 22  1  0
 21 15  2  0
 22 17  2  0
 23 16  1  0
 24 14  1  0
 26 28  2  0
 27 26  1  0
 29 27  1  0
 30 39  2  0
 30 35  1  0
 31 27  1  0
 31 35  1  0
 32 31  1  0
 33 34  1  0
 33 32  1  0
 34 30  1  0
 35 36  2  0
 36 37  1  0
 38 37  2  0
 39 38  1  0
 40 14  1  0
 40 45  1  0
 40 41  1  0
 41 44  1  1
 41 42  1  0
 43 41  1  0
 45 48  1  0
 46 50  1  0
 46 45  1  0
 47 46  2  0
 50 49  1  0
 52 50  1  0
 52 53  1  0
 52 51  1  0
 55 54  1  0
 55 56  1  0
 57 65  1  0
 58 63  1  0
 59 60  1  0
 59 58  1  0
 61 60  1  0
 61 70  1  0
 61 62  1  0
 63 57  1  0
 63 62  1  0
 64 57  2  0
 65 66  1  0
 65 56  1  0
 67 68  2  0
 68 87  1  0
 69 68  1  0
 69 72  1  0
 70 67  1  0
 70 71  1  0
 71 69  2  0
 72 73  1  0
 73 74  2  0
 75 78  1  0
 75 74  1  0
 76 75  2  0
 77 76  1  0
 77 72  2  0
 78 79  1  0
 79 80  1  0
 80 81  2  0
 82 81  1  0
 82 86  1  0
 83 82  2  0
 84 79  2  0
 84 83  1  0
 85 84  1  0
 87 88  1  0
 88 91  1  0
 88 90  1  0
 89 87  2  0
 92 93  1  0
 92 67  1  0
 94 92  1  0
M  ISO  4  10 101  13 101  57 100  65 100
M  END
>  <TORSDO>  (48) 
F 19

>  <SCORE>  (48) 
-14.423

>  <name>  (48) 
47

>  <ligand_id>  (48) 
47

>  <original_smiles>  (48) 
[H]c1c([H])c([H])c2c(c1[H])C([H])([H])C([H])([H])C([H])([H])C2([H])N([H])C(=O)C1([H])N(C(=O)C([H])(N([H])C(=O)C([H])(N([H])C([H])([H])[H])C([H])([H])[H])C(C([H])([H])[H])(C([H])([H])[H])C([H])([H])[H])C([H])([H])c2c([H])c(OC3([H])C([H])([H])C([H])([H])C4(C([H])([H])C([H])([H])C(=NC([H])([H])C([H])([H])C([H])([H])N([H])C(=O)N5C([H])([H])C([H])([H])C([H])([H])C([H])(n6nc(-c7c([H])c([H])c(Oc8c([H])c([H])c(F)c([H])c8F)c([H])c7[H])c(C(=O)N([H])[H])c6N([H])[H])C5([H])[H])C([H])([H])C4([H])[H])C([H])([H])C3([H])[H])c([H])c([H])c2C1([H])[H]

>  <smiles>  (48) 
[H]c1c([H])c([H])c2c(c1[H])C([H])([H])C([H])([H])C([H])([H])C2([H])N([H])C(=O)C1([H])N(C(=O)C([H])(N([H])C(=O)C([H])(N([H])C([H])([H])[H])C([H])([H])[H])C(C([H])([H])[H])(C([H])([H])[H])C([H])([H])[H])C([H])([H])c2c([H])c(OC3([H])C([H])([H])C([H])([H])C4(C([H])([H])C([H])([H])C(=NC([H])([H])C([H])([H])C([H])([H])N([H])C(=O)N5C([H])([H])C([H])([H])C([H])([H])C([H])(n6nc(-c7c([H])c([H])c(Oc8c([H])c([H])c(F)c([H])c8F)c([H])c7[H])c(C(=O)N([H])[H])c6N([H])[H])C5([H])[H])C([H])([H])C4([H])[H])C([H])([H])C3([H])[H])c([H])c([H])c2C1([H])[H]

$$$$
48:0:0
     RDKit          3D

 91100  0  0  1  0  0  0  0  0999 V2000
  -28.9170  -23.3770   21.5050 C   0  0  0  0  0  3  0  0  0  0  0  0
  -29.3860  -22.0440   21.7220 C   0  0  0  0  0  3  0  0  0  0  0  0
  -29.9040  -21.8010   19.3630 C   0  0  0  0  0  3  0  0  0  0  0  0
  -28.9490  -23.9280   20.2050 C   0  0  0  0  0  0  0  0  0  0  0  0
  -29.4340  -23.1280   19.1640 C   0  0  0  0  0  0  0  0  0  0  0  0
  -29.8780  -21.2240   20.6610 C   0  0  0  0  0  0  0  0  0  0  0  0
  -29.2930  -23.8300   17.8360 C   0  0  0  0  0  2  0  0  0  0  0  0
  -28.6960  -25.2170   18.1780 C   0  0  0  0  0  2  0  0  0  0  0  0
  -28.2340  -25.1840   19.6530 C   0  0  0  0  0  3  0  0  0  0  0  0
  -28.3510  -26.5260   20.2510 O   0  0  0  0  0  0  0  0  0  0  0  0
  -24.6530  -31.9310   23.2550 C   0  0  0  0  0  0  0  0  0  0  0  0
  -27.2410  -27.3870   20.1620 C   0  0  0  0  0  0  0  0  0  0  0  0
  -23.4380  -30.5390   21.6210 C   0  0  0  0  0  3  0  0  0  0  0  0
  -24.8800  -29.0080   20.1740 C   0  0  0  0  0  0  0  0  0  0  0  0
  -25.9790  -30.8490   21.4350 C   0  0  0  0  0  2  0  0  0  0  0  0
  -26.0500  -29.4770   20.7840 C   0  0  0  0  0  0  0  0  0  0  0  0
  -27.2280  -28.6740   20.7840 C   0  0  0  0  0  3  0  0  0  0  0  0
  -26.0510  -26.9960   19.4940 C   0  0  0  0  0  3  0  0  0  0  0  0
  -24.8820  -27.7720   19.5210 C   0  0  0  0  0  3  0  0  0  0  0  0
  -23.6460  -29.8820   20.2330 C   0  0  0  0  0  2  0  0  0  0  0  0
  -24.7090  -31.1190   22.1620 N   0  0  0  0  0  0  0  0  0  0  0  0
  -23.5680  -32.2350   23.7710 O   0  0  0  0  0  0  0  0  0  0  0  0
  -22.7790  -29.5140   22.5730 C   0  0  0  0  0  0  0  0  0  0  0  0
  -21.4540  -29.3320   22.4430 N   0  0  0  0  0  0  0  0  0  0  0  0
  -23.4570  -28.8870   23.3920 O   0  0  0  0  0  0  0  0  0  0  0  0
  -20.9650  -29.8880   21.7560 H   0  0  0  0  0  0  0  0  0  0  0  0
  -18.0800  -28.1200   22.9230 C   0  0  0  0  0  0  0  0  0  0  0  0
  -20.6350  -28.3910   23.2090 C   0  0  0  0  0  3  0  0  0  0  0  0
  -20.7480  -26.9580   22.6390 C   0  0  0  0  0  2  0  0  0  0  0  0
  -19.6550  -26.6270   21.6190 C   0  0  0  0  0  2  0  0  0  0  0  0
  -18.2670  -26.7680   22.2520 C   0  0  0  0  0  2  0  0  0  0  0  0
  -19.1920  -28.8870   23.3580 C   0  0  0  0  0  0  0  0  0  0  0  0
  -18.9640  -30.1520   23.9450 C   0  0  0  0  0  3  0  0  0  0  0  0
  -17.6560  -30.6470   24.1010 C   0  0  0  0  0  3  0  0  0  0  0  0
  -16.5590  -29.8770   23.6820 C   0  0  0  0  0  3  0  0  0  0  0  0
  -16.7700  -28.6160   23.0970 C   0  0  0  0  0  3  0  0  0  0  0  0
  -25.9430  -32.5460   23.8820 C   0  0  0  0  0  3  0  0  0  0  0  0
  -26.4600  -31.7610   25.1490 C   0  0  1  0  0  0  0  0  0  0  0  0
  -25.3700  -31.5160   26.2180 C   0  0  0  0  0  1  0  0  0  0  0  0
  -27.0400  -30.3870   24.7430 C   0  0  0  0  0  1  0  0  0  0  0  0
  -27.6150  -32.5470   25.8140 C   0  0  0  0  0  1  0  0  0  0  0  0
  -25.6460  -33.9430   24.2250 N   0  0  0  0  0  0  0  0  0  0  0  0
  -25.9500  -34.9950   23.4540 C   0  0  0  0  0  0  0  0  0  0  0  0
  -26.5850  -34.8930   22.4010 O   0  0  0  0  0  0  0  0  0  0  0  0
  -25.0880  -34.1000   25.0510 H   0  0  0  0  0  0  0  0  0  0  0  0
  -24.1950  -36.7710   23.1630 C   0  0  0  0  0  1  0  0  0  0  0  0
  -25.4710  -36.3820   23.9270 C   0  0  0  0  0  3  0  0  0  0  0  0
  -27.6280  -37.2820   24.6720 C   0  0  0  0  0  1  0  0  0  0  0  0
  -26.4910  -37.4410   23.7700 N   0  0  0  0  0  0  0  0  0  0  0  0
  -26.0840  -38.3570   23.9340 H   0  0  0  0  0  0  0  0  0  0  0  0
  -30.5130  -19.8200   20.9460 C   0  0  0  0  0  2  0  0  0  0  0  0
  -29.7450  -18.4670   20.6360 C   0  0  0  0  0  2  0  0  0  0  0  0
  -30.6000  -17.1600   20.9420 C   0  0  0  0  0  2  0  0  0  0  0  0
  -30.6670  -14.6580   20.4270 C   0  0  0  0  0  0  0  0  0  0  0  0
  -30.3690  -12.4480   19.3390 C   0  0  0  0  0  2  0  0  0  0  0  0
  -29.4230  -12.5670   18.1280 C   0  0  0  0  0  2  0  0  0  0  0  0
  -27.9590  -12.4000   18.5740 C   0  0  0  0  0  2  0  0  0  0  0  0
  -27.6040  -13.2870   19.7970 C   0  0  0  0  0  3  0  0  0  0  0  0
  -28.6680  -13.1680   20.9120 C   0  0  0  0  0  2  0  0  0  0  0  0
  -29.9740  -13.4820   20.3160 N   0  0  0  0  0  0  0  0  0  0  0  0
  -31.8430  -14.7370   20.0660 O   0  0  0  0  0  0  0  0  0  0  0  0
  -29.9860  -15.7940   20.7700 N   0  0  0  0  0  0  0  0  0  0  0  0
  -29.0030  -15.6920   20.9800 H   0  0  0  0  0  0  0  0  0  0  0  0
  -25.2120  -13.8820   20.5220 C   0  0  0  0  0  0  0  0  0  0  0  0
  -24.1460  -13.1080   20.8900 C   0  0  0  0  0  0  0  0  0  0  0  0
  -24.6090  -11.7570   20.8590 C   0  0  0  0  0  0  0  0  0  0  0  0
  -26.2580  -13.0040   20.2900 N   0  0  0  0  0  0  0  0  0  0  0  0
  -25.9010  -11.7190   20.5550 N   0  0  0  0  0  0  0  0  0  0  0  0
  -23.8830  -10.4930   21.0480 C   0  0  0  0  0  0  0  0  0  0  0  0
  -24.3170   -9.5250   21.9780 C   0  0  0  0  0  3  0  0  0  0  0  0
  -23.5930   -8.3270   22.1540 C   0  0  0  0  0  3  0  0  0  0  0  0
  -22.4210   -8.0880   21.3990 C   0  0  0  0  0  0  0  0  0  0  0  0
  -22.0060   -9.0460   20.4570 C   0  0  0  0  0  3  0  0  0  0  0  0
  -22.7300  -10.2360   20.2800 C   0  0  0  0  0  3  0  0  0  0  0  0
  -21.6670   -6.9430   21.4850 O   0  0  0  0  0  0  0  0  0  0  0  0
  -21.6210   -6.1970   22.6350 C   0  0  0  0  0  0  0  0  0  0  0  0
  -21.1830   -6.7440   23.8610 C   0  0  0  0  0  3  0  0  0  0  0  0
  -21.0840   -5.9250   25.0030 C   0  0  0  0  0  3  0  0  0  0  0  0
  -21.4120   -4.5580   24.9190 C   0  0  0  0  0  0  0  0  0  0  0  0
  -21.8410   -4.0100   23.6990 C   0  0  0  0  0  3  0  0  0  0  0  0
  -21.9420   -4.8260   22.5590 C   0  0  0  0  0  0  0  0  0  0  0  0
  -22.3360   -4.2880   21.3800 F   0  0  0  0  0  0  0  0  0  0  0  0
  -21.3090   -3.7690   26.0140 F   0  0  0  0  0  0  0  0  0  0  0  0
  -22.7480  -13.5830   21.1580 C   0  0  0  0  0  0  0  0  0  0  0  0
  -22.0210  -12.8870   22.0240 N   0  0  0  0  0  0  0  0  0  0  0  0
  -22.3080  -14.6070   20.6360 O   0  0  0  0  0  0  0  0  0  0  0  0
  -22.3890  -12.0590   22.4680 H   0  0  0  0  0  0  0  0  0  0  0  0
  -21.0810  -13.1860   22.2470 H   0  0  0  0  0  0  0  0  0  0  0  0
  -25.3750  -15.2530   20.3430 N   0  0  0  0  0  0  0  0  0  0  0  0
  -24.6030  -15.9040   20.4430 H   0  0  0  0  0  0  0  0  0  0  0  0
  -26.2150  -15.6890   19.9830 H   0  0  0  0  0  0  0  0  0  0  0  0
  1  2  1  0
  3  6  1  0
  4  1  2  0
  5  3  2  0
  5  4  1  0
  6 51  1  0
  6  2  2  0
  7  8  1  0
  7  5  1  0
  8  9  1  0
  9  4  1  0
  9 10  1  0
 11 22  2  0
 12 10  1  0
 12 17  1  0
 13 21  1  0
 13 23  1  0
 14 20  1  0
 14 16  1  0
 15 21  1  0
 16 15  1  0
 17 16  2  0
 18 19  1  0
 18 12  2  0
 19 14  2  0
 20 13  1  0
 21 11  1  0
 23 25  2  0
 24 23  1  0
 26 24  1  0
 27 36  2  0
 27 32  1  0
 28 24  1  0
 28 32  1  0
 29 28  1  0
 30 31  1  0
 30 29  1  0
 31 27  1  0
 32 33  2  0
 33 34  1  0
 35 34  2  0
 36 35  1  0
 37 11  1  0
 37 42  1  0
 37 38  1  0
 38 41  1  1
 38 39  1  0
 40 38  1  0
 42 45  1  0
 43 47  1  0
 43 42  1  0
 44 43  2  0
 47 46  1  0
 49 47  1  0
 49 50  1  0
 49 48  1  0
 52 53  1  0
 52 51  1  0
 54 62  1  0
 55 60  1  0
 56 57  1  0
 56 55  1  0
 58 57  1  0
 58 67  1  0
 58 59  1  0
 60 54  1  0
 60 59  1  0
 61 54  2  0
 62 53  1  0
 62 63  1  0
 64 65  2  0
 65 84  1  0
 66 65  1  0
 66 69  1  0
 67 64  1  0
 67 68  1  0
 68 66  2  0
 69 70  1  0
 70 71  2  0
 72 75  1  0
 72 71  1  0
 73 72  2  0
 74 73  1  0
 74 69  2  0
 75 76  1  0
 76 77  1  0
 77 78  2  0
 79 78  1  0
 79 83  1  0
 80 79  2  0
 81 76  2  0
 81 80  1  0
 82 81  1  0
 84 85  1  0
 85 88  1  0
 85 87  1  0
 86 84  2  0
 89 90  1  0
 89 64  1  0
 91 89  1  0
M  ISO  4   9 101  10 101  54 100  62 100
M  END
>  <TORSDO>  (49) 
F 19

>  <SCORE>  (49) 
-14.310

>  <name>  (49) 
48

>  <ligand_id>  (49) 
48

>  <original_smiles>  (49) 
[H]c1c([H])c([H])c2c(c1[H])C([H])([H])C([H])([H])C([H])([H])C2([H])N([H])C(=O)C1([H])N(C(=O)C([H])(N([H])C(=O)C([H])(N([H])C([H])([H])[H])C([H])([H])[H])C(C([H])([H])[H])(C([H])([H])[H])C([H])([H])[H])C([H])([H])c2c([H])c(OC3([H])c4c([H])c([H])c(C([H])([H])C([H])([H])C([H])([H])N([H])C(=O)N5C([H])([H])C([H])([H])C([H])([H])C([H])(n6nc(-c7c([H])c([H])c(Oc8c([H])c([H])c(F)c([H])c8F)c([H])c7[H])c(C(=O)N([H])[H])c6N([H])[H])C5([H])[H])c([H])c4C([H])([H])C3([H])[H])c([H])c([H])c2C1([H])[H]

>  <smiles>  (49) 
[H]c1c([H])c([H])c2c(c1[H])C([H])([H])C([H])([H])C([H])([H])C2([H])N([H])C(=O)C1([H])N(C(=O)C([H])(N([H])C(=O)C([H])(N([H])C([H])([H])[H])C([H])([H])[H])C(C([H])([H])[H])(C([H])([H])[H])C([H])([H])[H])C([H])([H])c2c([H])c(OC3([H])c4c([H])c([H])c(C([H])([H])C([H])([H])C([H])([H])N([H])C(=O)N5C([H])([H])C([H])([H])C([H])([H])C([H])(n6nc(-c7c([H])c([H])c(Oc8c([H])c([H])c(F)c([H])c8F)c([H])c7[H])c(C(=O)N([H])[H])c6N([H])[H])C5([H])[H])c([H])c4C([H])([H])C3([H])[H])c([H])c([H])c2C1([H])[H]

$$$$
49:0:0
     RDKit          3D

 93101  0  0  1  0  0  0  0  0999 V2000
  -29.2340  -20.2570   18.6910 C   0  0  0  0  0  3  0  0  0  0  0  0
  -29.0410  -21.6640   18.5970 C   0  0  0  0  0  3  0  0  0  0  0  0
  -28.9380  -20.3760   21.0700 C   0  0  0  0  0  3  0  0  0  0  0  0
  -29.1930  -19.5660   19.9270 C   0  0  0  0  0  0  0  0  0  0  0  0
  -28.7690  -22.4830   19.7240 C   0  0  0  0  0  0  0  0  0  0  0  0
  -28.7220  -21.7940   20.9770 C   0  0  0  0  0  0  0  0  0  0  0  0
  -28.4350  -22.4840   22.1510 N   0  0  0  0  0  0  0  0  0  0  0  0
  -28.2690  -21.9470   22.9950 H   0  0  0  0  0  0  0  0  0  0  0  0
  -27.8170  -23.2840   22.0830 H   0  0  0  0  0  0  0  0  0  0  0  0
  -29.2380  -18.0280   19.9130 C   0  0  0  0  0  0  0  0  0  0  0  0
  -28.5560  -17.4000   19.0940 O   0  0  0  0  0  0  0  0  0  0  0  0
  -30.1690  -17.1770   20.8450 C   0  0  0  0  0  2  0  0  0  0  0  0
  -30.6230  -14.6460   20.4190 C   0  0  0  0  0  0  0  0  0  0  0  0
  -30.3960  -12.4280   19.3220 C   0  0  0  0  0  2  0  0  0  0  0  0
  -29.4410  -12.5630   18.1140 C   0  0  0  0  0  2  0  0  0  0  0  0
  -27.9720  -12.4020   18.5540 C   0  0  0  0  0  2  0  0  0  0  0  0
  -27.6200  -13.2540   19.8010 C   0  0  0  0  0  3  0  0  0  0  0  0
  -28.6860  -13.0960   20.9110 C   0  0  0  0  0  2  0  0  0  0  0  0
  -29.9920  -13.4340   20.3240 N   0  0  0  0  0  0  0  0  0  0  0  0
  -31.7740  -14.8110   20.0080 O   0  0  0  0  0  0  0  0  0  0  0  0
  -29.8610  -15.6990   20.8280 N   0  0  0  0  0  0  0  0  0  0  0  0
  -28.9160  -15.4650   21.0940 H   0  0  0  0  0  0  0  0  0  0  0  0
  -25.2250  -13.8450   20.5270 C   0  0  0  0  0  0  0  0  0  0  0  0
  -24.1610  -13.0690   20.8990 C   0  0  0  0  0  0  0  0  0  0  0  0
  -24.6260  -11.7190   20.8650 C   0  0  0  0  0  0  0  0  0  0  0  0
  -26.2710  -12.9690   20.2870 N   0  0  0  0  0  0  0  0  0  0  0  0
  -25.9160  -11.6840   20.5490 N   0  0  0  0  0  0  0  0  0  0  0  0
  -23.9050  -10.4530   21.0550 C   0  0  0  0  0  0  0  0  0  0  0  0
  -24.3480   -9.4810   21.9810 C   0  0  0  0  0  3  0  0  0  0  0  0
  -23.6270   -8.2810   22.1610 C   0  0  0  0  0  3  0  0  0  0  0  0
  -22.4480   -8.0420   21.4150 C   0  0  0  0  0  0  0  0  0  0  0  0
  -22.0230   -9.0040   20.4810 C   0  0  0  0  0  3  0  0  0  0  0  0
  -22.7440  -10.1950   20.2990 C   0  0  0  0  0  3  0  0  0  0  0  0
  -21.6990   -6.8930   21.5030 O   0  0  0  0  0  0  0  0  0  0  0  0
  -21.6690   -6.1400   22.6500 C   0  0  0  0  0  0  0  0  0  0  0  0
  -21.2570   -6.6840   23.8860 C   0  0  0  0  0  3  0  0  0  0  0  0
  -21.1710   -5.8570   25.0240 C   0  0  0  0  0  3  0  0  0  0  0  0
  -21.4900   -4.4910   24.9290 C   0  0  0  0  0  0  0  0  0  0  0  0
  -21.9000   -3.9460   23.6990 C   0  0  0  0  0  3  0  0  0  0  0  0
  -21.9870   -4.7700   22.5620 C   0  0  0  0  0  0  0  0  0  0  0  0
  -22.3590   -4.2360   21.3730 F   0  0  0  0  0  0  0  0  0  0  0  0
  -21.4020   -3.6950   26.0220 F   0  0  0  0  0  0  0  0  0  0  0  0
  -22.7640  -13.5420   21.1780 C   0  0  0  0  0  0  0  0  0  0  0  0
  -22.0410  -12.8410   22.0430 N   0  0  0  0  0  0  0  0  0  0  0  0
  -22.3230  -14.5690   20.6630 O   0  0  0  0  0  0  0  0  0  0  0  0
  -22.4140  -12.0160   22.4870 H   0  0  0  0  0  0  0  0  0  0  0  0
  -21.1050  -13.1420   22.2730 H   0  0  0  0  0  0  0  0  0  0  0  0
  -25.3860  -15.2150   20.3520 N   0  0  0  0  0  0  0  0  0  0  0  0
  -24.6090  -15.8610   20.4440 H   0  0  0  0  0  0  0  0  0  0  0  0
  -26.2170  -15.6530   19.9730 H   0  0  0  0  0  0  0  0  0  0  0  0
  -28.5470  -24.0290   19.4420 C   0  0  0  0  0  3  0  0  0  0  0  0
  -28.3230  -25.1300   20.5640 C   0  0  0  0  0  3  0  0  0  0  0  0
  -28.3970  -26.5570   20.1800 O   0  0  0  0  0  0  0  0  0  0  0  0
  -24.6120  -31.8900   23.2410 C   0  0  0  0  0  0  0  0  0  0  0  0
  -27.2450  -27.3490   20.1970 C   0  0  0  0  0  0  0  0  0  0  0  0
  -23.4100  -30.4800   21.6100 C   0  0  0  0  0  3  0  0  0  0  0  0
  -24.8650  -28.9260   20.1910 C   0  0  0  0  0  0  0  0  0  0  0  0
  -25.9480  -30.8100   21.4220 C   0  0  0  0  0  2  0  0  0  0  0  0
  -26.0330  -29.4330   20.7770 C   0  0  0  0  0  0  0  0  0  0  0  0
  -27.2280  -28.6610   20.7590 C   0  0  0  0  0  3  0  0  0  0  0  0
  -26.0550  -26.8740   19.6110 C   0  0  0  0  0  3  0  0  0  0  0  0
  -24.8790  -27.6510   19.6000 C   0  0  0  0  0  3  0  0  0  0  0  0
  -23.6260  -29.7970   20.2340 C   0  0  0  0  0  2  0  0  0  0  0  0
  -24.6770  -31.0730   22.1500 N   0  0  0  0  0  0  0  0  0  0  0  0
  -23.5250  -32.1910   23.7510 O   0  0  0  0  0  0  0  0  0  0  0  0
  -22.7510  -29.4660   22.5730 C   0  0  0  0  0  0  0  0  0  0  0  0
  -21.4260  -29.2850   22.4450 N   0  0  0  0  0  0  0  0  0  0  0  0
  -23.4300  -28.8430   23.3960 O   0  0  0  0  0  0  0  0  0  0  0  0
  -20.9370  -29.8380   21.7530 H   0  0  0  0  0  0  0  0  0  0  0  0
  -18.0480  -28.0880   22.9400 C   0  0  0  0  0  0  0  0  0  0  0  0
  -20.6060  -28.3490   23.2160 C   0  0  0  0  0  3  0  0  0  0  0  0
  -20.7100  -26.9170   22.6410 C   0  0  0  0  0  2  0  0  0  0  0  0
  -19.6110  -26.5940   21.6250 C   0  0  0  0  0  2  0  0  0  0  0  0
  -18.2270  -26.7390   22.2650 C   0  0  0  0  0  2  0  0  0  0  0  0
  -19.1660  -28.8510   23.3720 C   0  0  0  0  0  0  0  0  0  0  0  0
  -18.9440  -30.1150   23.9620 C   0  0  0  0  0  3  0  0  0  0  0  0
  -17.6400  -30.6130   24.1280 C   0  0  0  0  0  3  0  0  0  0  0  0
  -16.5370  -29.8480   23.7130 C   0  0  0  0  0  3  0  0  0  0  0  0
  -16.7420  -28.5880   23.1220 C   0  0  0  0  0  3  0  0  0  0  0  0
  -25.8940  -32.5160   23.8730 C   0  0  0  0  0  3  0  0  0  0  0  0
  -25.5840  -33.9140   24.2000 N   0  0  0  0  0  0  0  0  0  0  0  0
  -25.9120  -34.9660   23.4380 C   0  0  0  0  0  0  0  0  0  0  0  0
  -26.5760  -34.8620   22.4040 O   0  0  0  0  0  0  0  0  0  0  0  0
  -24.9900  -34.0680   25.0010 H   0  0  0  0  0  0  0  0  0  0  0  0
  -24.1770  -36.7580   23.0910 C   0  0  0  0  0  1  0  0  0  0  0  0
  -25.4240  -36.3550   23.8950 C   0  0  0  0  0  3  0  0  0  0  0  0
  -27.5600  -37.2490   24.7110 C   0  0  0  0  0  1  0  0  0  0  0  0
  -26.4510  -37.4120   23.7740 N   0  0  0  0  0  0  0  0  0  0  0  0
  -26.0410  -38.3310   23.9230 H   0  0  0  0  0  0  0  0  0  0  0  0
  -26.4060  -31.7490   25.1550 C   0  0  1  0  0  0  0  0  0  0  0  0
  -25.3120  -31.5140   26.2220 C   0  0  0  0  0  1  0  0  0  0  0  0
  -26.9940  -30.3700   24.7780 C   0  0  0  0  0  1  0  0  0  0  0  0
  -27.5540  -32.5480   25.8150 C   0  0  0  0  0  1  0  0  0  0  0  0
  1  4  1  0
  2  1  2  0
  2  5  1  0
  4  3  2  0
  5  6  2  0
  6  3  1  0
  6  7  1  0
  7  8  1  0
  9  7  1  0
 10  4  1  0
 10 12  1  0
 11 10  2  0
 13 21  1  0
 14 19  1  0
 15 16  1  0
 15 14  1  0
 17 16  1  0
 17 26  1  0
 17 18  1  0
 19 13  1  0
 19 18  1  0
 20 13  2  0
 21 12  1  0
 21 22  1  0
 23 24  2  0
 24 43  1  0
 25 24  1  0
 25 28  1  0
 26 23  1  0
 26 27  1  0
 27 25  2  0
 28 29  1  0
 29 30  2  0
 31 34  1  0
 31 30  1  0
 32 31  2  0
 33 32  1  0
 33 28  2  0
 34 35  1  0
 35 36  1  0
 36 37  2  0
 38 37  1  0
 38 42  1  0
 39 38  2  0
 40 35  2  0
 40 39  1  0
 41 40  1  0
 43 44  1  0
 44 47  1  0
 44 46  1  0
 45 43  2  0
 48 49  1  0
 48 23  1  0
 50 48  1  0
 51  5  1  0
 51 52  2  0
 53 55  1  0
 53 52  1  0
 54 65  2  0
 55 60  1  0
 56 64  1  0
 56 66  1  0
 57 63  1  0
 57 59  1  0
 58 64  1  0
 59 58  1  0
 60 59  2  0
 61 55  2  0
 62 61  1  0
 62 57  2  0
 63 56  1  0
 64 54  1  0
 66 68  2  0
 67 66  1  0
 69 67  1  0
 70 79  2  0
 70 75  1  0
 71 67  1  0
 71 75  1  0
 72 71  1  0
 73 74  1  0
 73 72  1  0
 74 70  1  0
 75 76  2  0
 76 77  1  0
 78 77  2  0
 79 78  1  0
 80 54  1  0
 80 81  1  0
 80 90  1  0
 81 84  1  0
 82 86  1  0
 82 81  1  0
 83 82  2  0
 86 85  1  0
 88 86  1  0
 88 89  1  0
 88 87  1  0
 90 93  1  1
 90 91  1  0
 92 90  1  0
M  ISO  4  13 100  21 100  52 101  53 101
M  END
>  <TORSDO>  (50) 
F 21

>  <SCORE>  (50) 
-13.963

>  <name>  (50) 
49

>  <ligand_id>  (50) 
49

>  <original_smiles>  (50) 
[H]c1c([H])c([H])c2c(c1[H])C([H])([H])C([H])([H])C([H])([H])C2([H])N([H])C(=O)C1([H])N(C(=O)C([H])(N([H])C(=O)C([H])(N([H])C([H])([H])[H])C([H])([H])[H])C(C([H])([H])[H])(C([H])([H])[H])C([H])([H])[H])C([H])([H])c2c([H])c(OC([H])([H])C([H])([H])c3c([H])c([H])c(C(=O)C([H])([H])N([H])C(=O)N4C([H])([H])C([H])([H])C([H])([H])C([H])(n5nc(-c6c([H])c([H])c(Oc7c([H])c([H])c(F)c([H])c7F)c([H])c6[H])c(C(=O)N([H])[H])c5N([H])[H])C4([H])[H])c([H])c3N([H])[H])c([H])c([H])c2C1([H])[H]

>  <smiles>  (50) 
[H]c1c([H])c([H])c2c(c1[H])C([H])([H])C([H])([H])C([H])([H])C2([H])N([H])C(=O)C1([H])N(C(=O)C([H])(N([H])C(=O)C([H])(N([H])C([H])([H])[H])C([H])([H])[H])C(C([H])([H])[H])(C([H])([H])[H])C([H])([H])[H])C([H])([H])c2c([H])c(OC([H])([H])C([H])([H])c3c([H])c([H])c(C(=O)C([H])([H])N([H])C(=O)N4C([H])([H])C([H])([H])C([H])([H])C([H])(n5nc(-c6c([H])c([H])c(Oc7c([H])c([H])c(F)c([H])c7F)c([H])c6[H])c(C(=O)N([H])[H])c5N([H])[H])C4([H])[H])c([H])c3N([H])[H])c([H])c([H])c2C1([H])[H]

$$$$
50:0:0
     RDKit          3D

 97106  0  0  1  0  0  0  0  0999 V2000
  -28.4790  -20.7310   20.3530 C   0  0  0  0  0  2  0  0  0  0  0  0
  -29.6240  -24.5150   19.8460 C   0  0  0  0  0  2  0  0  0  0  0  0
  -27.7300  -24.4360   21.3530 C   0  0  0  0  0  2  0  0  0  0  0  0
  -29.5540  -22.9610   19.6260 C   0  0  0  0  0  2  0  0  0  0  0  0
  -27.6030  -22.8980   21.1330 C   0  0  0  0  0  2  0  0  0  0  0  0
  -28.2480  -25.1720   20.1010 C   0  0  0  0  0  3  0  0  0  0  0  0
  -28.8420  -22.1750   20.6880 N   0  0  1  0  0  4  0  0  0  0  0  0
  -29.4630  -22.1310   21.4840 H   0  0  0  0  0  0  0  0  0  0  0  0
  -28.3200  -26.6310   20.2660 O   0  0  0  0  0  0  0  0  0  0  0  0
  -24.5900  -31.9840   23.2670 C   0  0  0  0  0  0  0  0  0  0  0  0
  -27.1590  -27.4110   20.2300 C   0  0  0  0  0  0  0  0  0  0  0  0
  -23.3600  -30.5720   21.6570 C   0  0  0  0  0  3  0  0  0  0  0  0
  -24.7890  -29.0020   20.2350 C   0  0  0  0  0  0  0  0  0  0  0  0
  -25.9000  -30.8760   21.4540 C   0  0  0  0  0  2  0  0  0  0  0  0
  -25.9630  -29.5010   20.8120 C   0  0  0  0  0  0  0  0  0  0  0  0
  -27.1510  -28.7170   20.7950 C   0  0  0  0  0  3  0  0  0  0  0  0
  -25.9590  -26.9480   19.6400 C   0  0  0  0  0  3  0  0  0  0  0  0
  -24.7870  -27.7300   19.6440 C   0  0  0  0  0  3  0  0  0  0  0  0
  -23.5560  -29.8800   20.2830 C   0  0  0  0  0  2  0  0  0  0  0  0
  -24.6350  -31.1590   22.1840 N   0  0  0  0  0  0  0  0  0  0  0  0
  -23.5090  -32.3010   23.7830 O   0  0  0  0  0  0  0  0  0  0  0  0
  -22.7000  -29.5700   22.6340 C   0  0  0  0  0  0  0  0  0  0  0  0
  -21.3820  -29.3590   22.4790 N   0  0  0  0  0  0  0  0  0  0  0  0
  -23.3730  -28.9840   23.4860 O   0  0  0  0  0  0  0  0  0  0  0  0
  -20.9000  -29.8820   21.7620 H   0  0  0  0  0  0  0  0  0  0  0  0
  -18.0170  -28.1150   22.9340 C   0  0  0  0  0  0  0  0  0  0  0  0
  -20.5630  -28.4270   23.2550 C   0  0  0  0  0  3  0  0  0  0  0  0
  -20.7030  -26.9820   22.7190 C   0  0  0  0  0  2  0  0  0  0  0  0
  -19.6300  -26.6150   21.6890 C   0  0  0  0  0  2  0  0  0  0  0  0
  -18.2320  -26.7510   22.2970 C   0  0  0  0  0  2  0  0  0  0  0  0
  -19.1120  -28.9080   23.3690 C   0  0  0  0  0  0  0  0  0  0  0  0
  -18.8570  -30.1820   23.9210 C   0  0  0  0  0  3  0  0  0  0  0  0
  -17.5410  -30.6630   24.0460 C   0  0  0  0  0  3  0  0  0  0  0  0
  -16.4590  -29.8660   23.6290 C   0  0  0  0  0  3  0  0  0  0  0  0
  -16.6980  -28.5940   23.0790 C   0  0  0  0  0  3  0  0  0  0  0  0
  -25.8860  -32.5980   23.8850 C   0  0  0  0  0  3  0  0  0  0  0  0
  -26.4120  -31.8180   25.1530 C   0  0  1  0  0  0  0  0  0  0  0  0
  -25.3220  -31.5600   26.2180 C   0  0  0  0  0  1  0  0  0  0  0  0
  -27.0070  -30.4480   24.7500 C   0  0  0  0  0  1  0  0  0  0  0  0
  -27.5590  -32.6150   25.8180 C   0  0  0  0  0  1  0  0  0  0  0  0
  -25.5930  -33.9970   24.2250 N   0  0  0  0  0  0  0  0  0  0  0  0
  -25.8970  -35.0480   23.4530 C   0  0  0  0  0  0  0  0  0  0  0  0
  -26.5290  -34.9420   22.3980 O   0  0  0  0  0  0  0  0  0  0  0  0
  -25.0310  -34.1550   25.0480 H   0  0  0  0  0  0  0  0  0  0  0  0
  -24.1710  -36.8510   23.1380 C   0  0  0  0  0  1  0  0  0  0  0  0
  -25.4260  -36.4370   23.9240 C   0  0  0  0  0  3  0  0  0  0  0  0
  -27.5690  -37.3230   24.7320 C   0  0  0  0  0  1  0  0  0  0  0  0
  -26.4620  -37.4850   23.7930 N   0  0  0  0  0  0  0  0  0  0  0  0
  -26.0590  -38.4090   23.9330 H   0  0  0  0  0  0  0  0  0  0  0  0
  -30.4360  -19.8630   18.9150 C   0  0  0  0  0  3  0  0  0  0  0  0
  -29.4190  -18.2770   20.4480 C   0  0  0  0  0  3  0  0  0  0  0  0
  -29.5150  -19.6240   19.9520 C   0  0  0  0  0  0  0  0  0  0  0  0
  -31.2060  -18.8240   18.3620 C   0  0  0  0  0  0  0  0  0  0  0  0
  -30.1660  -17.1790   19.8970 C   0  0  0  0  0  0  0  0  0  0  0  0
  -31.0380  -17.4910   18.8030 C   0  0  0  0  0  0  0  0  0  0  0  0
  -32.1660  -19.1780   17.2290 C   0  0  0  0  0  1  0  0  0  0  0  0
  -30.6660  -14.6720   20.3260 C   0  0  0  0  0  0  0  0  0  0  0  0
  -30.4170  -12.4210   19.3520 C   0  0  0  0  0  2  0  0  0  0  0  0
  -29.4760  -12.5250   18.1350 C   0  0  0  0  0  2  0  0  0  0  0  0
  -28.0070  -12.3640   18.5740 C   0  0  0  0  0  2  0  0  0  0  0  0
  -27.6390  -13.2500   19.7950 C   0  0  0  0  0  3  0  0  0  0  0  0
  -28.7070  -13.1640   20.9070 C   0  0  0  0  0  2  0  0  0  0  0  0
  -30.0100  -13.4730   20.3030 N   0  0  0  0  0  0  0  0  0  0  0  0
  -31.8770  -14.7220   20.1050 O   0  0  0  0  0  0  0  0  0  0  0  0
  -29.9050  -15.8100   20.3760 N   0  0  0  0  0  0  0  0  0  0  0  0
  -28.9650  -15.6530   20.7040 H   0  0  0  0  0  0  0  0  0  0  0  0
  -25.2540  -13.8220   20.5600 C   0  0  0  0  0  0  0  0  0  0  0  0
  -24.1930  -13.0390   20.9270 C   0  0  0  0  0  0  0  0  0  0  0  0
  -24.6590  -11.6900   20.8620 C   0  0  0  0  0  0  0  0  0  0  0  0
  -26.2980  -12.9500   20.2940 N   0  0  0  0  0  0  0  0  0  0  0  0
  -25.9480  -11.6610   20.5410 N   0  0  0  0  0  0  0  0  0  0  0  0
  -23.9350  -10.4230   21.0370 C   0  0  0  0  0  0  0  0  0  0  0  0
  -24.3490   -9.4640   21.9900 C   0  0  0  0  0  3  0  0  0  0  0  0
  -23.6320   -8.2590   22.1510 C   0  0  0  0  0  3  0  0  0  0  0  0
  -22.4870   -8.0030   21.3590 C   0  0  0  0  0  0  0  0  0  0  0  0
  -22.0940   -8.9490   20.3960 C   0  0  0  0  0  3  0  0  0  0  0  0
  -22.8120  -10.1470   20.2330 C   0  0  0  0  0  3  0  0  0  0  0  0
  -21.7430   -6.8510   21.4280 O   0  0  0  0  0  0  0  0  0  0  0  0
  -21.6140   -6.1450   22.5970 C   0  0  0  0  0  0  0  0  0  0  0  0
  -20.9920   -6.6980   23.7380 C   0  0  0  0  0  3  0  0  0  0  0  0
  -20.8210   -5.9140   24.8970 C   0  0  0  0  0  3  0  0  0  0  0  0
  -21.2640   -4.5780   24.9140 C   0  0  0  0  0  0  0  0  0  0  0  0
  -21.8780   -4.0240   23.7770 C   0  0  0  0  0  3  0  0  0  0  0  0
  -22.0500   -4.8050   22.6220 C   0  0  0  0  0  0  0  0  0  0  0  0
  -22.6250   -4.2600   21.5230 F   0  0  0  0  0  0  0  0  0  0  0  0
  -21.0910   -3.8210   26.0240 F   0  0  0  0  0  0  0  0  0  0  0  0
  -22.7970  -13.5060   21.2230 C   0  0  0  0  0  0  0  0  0  0  0  0
  -22.0690  -12.7740   22.0590 N   0  0  0  0  0  0  0  0  0  0  0  0
  -22.3600  -14.5530   20.7470 O   0  0  0  0  0  0  0  0  0  0  0  0
  -22.4380  -11.9290   22.4680 H   0  0  0  0  0  0  0  0  0  0  0  0
  -21.1300  -13.0650   22.2970 H   0  0  0  0  0  0  0  0  0  0  0  0
  -25.4110  -15.1950   20.4010 N   0  0  0  0  0  0  0  0  0  0  0  0
  -24.6460  -15.8440   20.5510 H   0  0  0  0  0  0  0  0  0  0  0  0
  -26.2360  -15.6350   20.0140 H   0  0  0  0  0  0  0  0  0  0  0  0
  -31.6940  -16.5050   18.0730 N   0  0  0  0  0  0  0  0  0  0  0  0
  -31.9300  -15.6860   18.6410 H   0  0  0  0  0  0  0  0  0  0  0  0
  -32.4850  -16.8130   17.5190 H   0  0  0  0  0  0  0  0  0  0  0  0
  1  7  1  0
  2  6  1  0
  4  2  1  0
  4  7  1  0
  5  3  1  0
  6  9  1  0
  6  3  1  0
  7  5  1  0
  7  8  1  1
 10 21  2  0
 11  9  1  0
 11 16  1  0
 12 20  1  0
 12 22  1  0
 13 19  1  0
 13 15  1  0
 14 20  1  0
 15 14  1  0
 16 15  2  0
 17 18  1  0
 17 11  2  0
 18 13  2  0
 19 12  1  0
 20 10  1  0
 22 24  2  0
 23 22  1  0
 25 23  1  0
 26 35  2  0
 26 31  1  0
 27 23  1  0
 27 31  1  0
 28 27  1  0
 29 30  1  0
 29 28  1  0
 30 26  1  0
 31 32  2  0
 32 33  1  0
 34 33  2  0
 35 34  1  0
 36 10  1  0
 36 41  1  0
 36 37  1  0
 37 40  1  1
 37 38  1  0
 39 37  1  0
 41 44  1  0
 42 46  1  0
 42 41  1  0
 43 42  2  0
 46 45  1  0
 48 46  1  0
 48 49  1  0
 48 47  1  0
 50 52  1  0
 52  1  1  0
 52 51  2  0
 53 55  1  0
 53 50  2  0
 54 65  1  0
 54 51  1  0
 55 54  2  0
 56 53  1  0
 57 65  1  0
 58 63  1  0
 59 60  1  0
 59 58  1  0
 61 60  1  0
 61 70  1  0
 61 62  1  0
 63 57  1  0
 63 62  1  0
 64 57  2  0
 65 66  1  0
 67 68  2  0
 68 87  1  0
 69 68  1  0
 69 72  1  0
 70 71  1  0
 70 67  1  0
 71 69  2  0
 72 73  1  0
 73 74  2  0
 75 78  1  0
 75 74  1  0
 76 75  2  0
 77 76  1  0
 77 72  2  0
 78 79  1  0
 79 84  2  0
 79 80  1  0
 80 81  2  0
 81 82  1  0
 82 86  1  0
 83 82  2  0
 84 83  1  0
 85 84  1  0
 87 88  1  0
 88 91  1  0
 88 90  1  0
 89 87  2  0
 92 93  1  0
 92 67  1  0
 94 92  1  0
 95 96  1  0
 95 55  1  0
 97 95  1  0
M  ISO  4   6 101   9 101  57 100  65 100
M  END
>  <TORSDO>  (51) 
F 19

>  <SCORE>  (51) 
-14.755

>  <name>  (51) 
50

>  <ligand_id>  (51) 
50

>  <original_smiles>  (51) 
[H]c1c([H])c([H])c2c(c1[H])C([H])([H])C([H])([H])C([H])([H])C2([H])N([H])C(=O)C1([H])N(C(=O)C([H])(N([H])C(=O)C([H])(N([H])C([H])([H])[H])C([H])([H])[H])C(C([H])([H])[H])(C([H])([H])[H])C([H])([H])[H])C([H])([H])c2c([H])c(OC3([H])C([H])([H])C([H])([H])[N+]([H])(C([H])([H])c4c([H])c(N([H])C(=O)N5C([H])([H])C([H])([H])C([H])([H])C([H])(n6nc(-c7c([H])c([H])c(Oc8c([H])c([H])c(F)c([H])c8F)c([H])c7[H])c(C(=O)N([H])[H])c6N([H])[H])C5([H])[H])c(N([H])[H])c(C([H])([H])[H])c4[H])C([H])([H])C3([H])[H])c([H])c([H])c2C1([H])[H]

>  <smiles>  (51) 
[H]c1c([H])c([H])c2c(c1[H])C([H])([H])C([H])([H])C([H])([H])C2([H])N([H])C(=O)C1([H])N(C(=O)C([H])(N([H])C(=O)C([H])(N([H])C([H])([H])[H])C([H])([H])[H])C(C([H])([H])[H])(C([H])([H])[H])C([H])([H])[H])C([H])([H])c2c([H])c(OC3([H])C([H])([H])C([H])([H])[N+]([H])(C([H])([H])c4c([H])c(N([H])C(=O)N5C([H])([H])C([H])([H])C([H])([H])C([H])(n6nc(-c7c([H])c([H])c(Oc8c([H])c([H])c(F)c([H])c8F)c([H])c7[H])c(C(=O)N([H])[H])c6N([H])[H])C5([H])[H])c(N([H])[H])c(C([H])([H])[H])c4[H])C([H])([H])C3([H])[H])c([H])c([H])c2C1([H])[H]

$$$$
51:0:0
     RDKit          3D

 92101  0  0  1  0  0  0  0  0999 V2000
  -28.1860  -23.6850   17.7290 C   0  0  0  0  0  3  0  0  0  0  0  0
  -28.3870  -22.5720   18.5700 C   0  0  0  0  0  3  0  0  0  0  0  0
  -28.2010  -24.9960   18.2490 C   0  0  0  0  0  3  0  0  0  0  0  0
  -28.6190  -24.0890   20.4610 C   0  0  0  0  0  3  0  0  0  0  0  0
  -28.6310  -22.7490   19.9480 C   0  0  0  0  0  0  0  0  0  0  0  0
  -28.3800  -25.2310   19.6310 C   0  0  0  0  0  0  0  0  0  0  0  0
  -28.3720  -26.5470   20.1260 O   0  0  0  0  0  0  0  0  0  0  0  0
  -24.6240  -31.8730   23.2160 C   0  0  0  0  0  0  0  0  0  0  0  0
  -27.2210  -27.3380   20.1270 C   0  0  0  0  0  0  0  0  0  0  0  0
  -23.4080  -30.4690   21.5930 C   0  0  0  0  0  3  0  0  0  0  0  0
  -24.8460  -28.9190   20.1650 C   0  0  0  0  0  0  0  0  0  0  0  0
  -25.9470  -30.7910   21.3930 C   0  0  0  0  0  2  0  0  0  0  0  0
  -26.0190  -29.4180   20.7440 C   0  0  0  0  0  0  0  0  0  0  0  0
  -27.2090  -28.6360   20.7160 C   0  0  0  0  0  3  0  0  0  0  0  0
  -26.0110  -26.8730   19.5590 C   0  0  0  0  0  3  0  0  0  0  0  0
  -24.8410  -27.6490   19.5720 C   0  0  0  0  0  3  0  0  0  0  0  0
  -23.6100  -29.7870   20.2150 C   0  0  0  0  0  2  0  0  0  0  0  0
  -24.6810  -31.0580   22.1250 N   0  0  0  0  0  0  0  0  0  0  0  0
  -23.5400  -32.1760   23.7320 O   0  0  0  0  0  0  0  0  0  0  0  0
  -22.7530  -29.4530   22.5590 C   0  0  0  0  0  0  0  0  0  0  0  0
  -21.4260  -29.2780   22.4380 N   0  0  0  0  0  0  0  0  0  0  0  0
  -23.4350  -28.8250   23.3700 O   0  0  0  0  0  0  0  0  0  0  0  0
  -20.9350  -29.8340   21.7510 H   0  0  0  0  0  0  0  0  0  0  0  0
  -18.0470  -28.0920   22.9540 C   0  0  0  0  0  0  0  0  0  0  0  0
  -20.6080  -28.3430   23.2130 C   0  0  0  0  0  3  0  0  0  0  0  0
  -20.7020  -26.9100   22.6390 C   0  0  0  0  0  2  0  0  0  0  0  0
  -19.5940  -26.5910   21.6310 C   0  0  0  0  0  2  0  0  0  0  0  0
  -18.2160  -26.7420   22.2790 C   0  0  0  0  0  2  0  0  0  0  0  0
  -19.1720  -28.8510   23.3790 C   0  0  0  0  0  0  0  0  0  0  0  0
  -18.9600  -30.1140   23.9710 C   0  0  0  0  0  3  0  0  0  0  0  0
  -17.6580  -30.6220   24.1390 C   0  0  0  0  0  3  0  0  0  0  0  0
  -16.5490  -29.8620   23.7300 C   0  0  0  0  0  3  0  0  0  0  0  0
  -16.7440  -28.5980   23.1450 C   0  0  0  0  0  3  0  0  0  0  0  0
  -25.9130  -32.4920   23.8410 C   0  0  0  0  0  3  0  0  0  0  0  0
  -25.6070  -33.8860   24.1880 N   0  0  0  0  0  0  0  0  0  0  0  0
  -25.9200  -34.9450   23.4300 C   0  0  0  0  0  0  0  0  0  0  0  0
  -26.5720  -34.8510   22.3860 O   0  0  0  0  0  0  0  0  0  0  0  0
  -25.0180  -34.0350   24.9940 H   0  0  0  0  0  0  0  0  0  0  0  0
  -24.1730  -36.7290   23.1290 C   0  0  0  0  0  1  0  0  0  0  0  0
  -25.4360  -36.3280   23.9080 C   0  0  0  0  0  3  0  0  0  0  0  0
  -27.5850  -37.2210   24.6890 C   0  0  0  0  0  1  0  0  0  0  0  0
  -26.4590  -37.3880   23.7740 N   0  0  0  0  0  0  0  0  0  0  0  0
  -26.0510  -38.3050   23.9350 H   0  0  0  0  0  0  0  0  0  0  0  0
  -26.4380  -31.7100   25.1060 C   0  0  1  0  0  0  0  0  0  0  0  0
  -25.3490  -31.4660   26.1780 C   0  0  0  0  0  1  0  0  0  0  0  0
  -27.0170  -30.3330   24.7000 C   0  0  0  0  0  1  0  0  0  0  0  0
  -27.5930  -32.5000   25.7670 C   0  0  0  0  0  1  0  0  0  0  0  0
  -28.8440  -21.5190   20.8810 C   0  0  0  0  0  2  0  0  0  0  0  0
  -28.2480  -19.0750   20.0760 C   0  0  0  0  0  2  0  0  0  0  0  0
  -30.4940  -19.4780   21.1730 C   0  0  0  0  0  2  0  0  0  0  0  0
  -28.7280  -17.6650   19.5890 C   0  0  0  0  0  2  0  0  0  0  0  0
  -30.3330  -17.9620   21.5200 C   0  0  0  0  0  2  0  0  0  0  0  0
  -29.3690  -20.1310   20.2990 C   0  0  0  0  0  3  0  0  0  0  0  0
  -29.9850  -17.0710   20.3030 C   0  0  0  0  0  3  0  0  0  0  0  0
  -30.6110  -14.5660   20.3150 C   0  0  0  0  0  0  0  0  0  0  0  0
  -30.3750  -12.3490   19.2390 C   0  0  0  0  0  2  0  0  0  0  0  0
  -29.4210  -12.5120   18.0350 C   0  0  0  0  0  2  0  0  0  0  0  0
  -27.9490  -12.3740   18.4710 C   0  0  0  0  0  2  0  0  0  0  0  0
  -27.6150  -13.2200   19.7290 C   0  0  0  0  0  3  0  0  0  0  0  0
  -28.6800  -13.0260   20.8340 C   0  0  0  0  0  2  0  0  0  0  0  0
  -29.9900  -13.3520   20.2500 N   0  0  0  0  0  0  0  0  0  0  0  0
  -31.7600  -14.7330   19.8940 O   0  0  0  0  0  0  0  0  0  0  0  0
  -29.8160  -15.6220   20.6490 N   0  0  0  0  0  0  0  0  0  0  0  0
  -28.9170  -15.3640   21.0270 H   0  0  0  0  0  0  0  0  0  0  0  0
  -25.2300  -13.8340   20.4650 C   0  0  0  0  0  0  0  0  0  0  0  0
  -24.1640  -13.0650   20.8460 C   0  0  0  0  0  0  0  0  0  0  0  0
  -24.6220  -11.7110   20.8140 C   0  0  0  0  0  0  0  0  0  0  0  0
  -26.2690  -12.9490   20.2230 N   0  0  0  0  0  0  0  0  0  0  0  0
  -25.9090  -11.6680   20.4930 N   0  0  0  0  0  0  0  0  0  0  0  0
  -23.8930  -10.4520   21.0140 C   0  0  0  0  0  0  0  0  0  0  0  0
  -24.3330   -9.4830   21.9430 C   0  0  0  0  0  3  0  0  0  0  0  0
  -23.6060   -8.2890   22.1310 C   0  0  0  0  0  3  0  0  0  0  0  0
  -22.4240   -8.0530   21.3870 C   0  0  0  0  0  0  0  0  0  0  0  0
  -22.0020   -9.0100   20.4480 C   0  0  0  0  0  3  0  0  0  0  0  0
  -22.7330  -10.1970   20.2580 C   0  0  0  0  0  3  0  0  0  0  0  0
  -21.6690   -6.9100   21.4830 O   0  0  0  0  0  0  0  0  0  0  0  0
  -21.6300   -6.1690   22.6370 C   0  0  0  0  0  0  0  0  0  0  0  0
  -21.2170   -6.7250   23.8670 C   0  0  0  0  0  3  0  0  0  0  0  0
  -21.1200   -5.9080   25.0110 C   0  0  0  0  0  3  0  0  0  0  0  0
  -21.4320   -4.5380   24.9270 C   0  0  0  0  0  0  0  0  0  0  0  0
  -21.8390   -3.9830   23.7020 C   0  0  0  0  0  3  0  0  0  0  0  0
  -21.9340   -4.7950   22.5590 C   0  0  0  0  0  0  0  0  0  0  0  0
  -22.3060   -4.2490   21.3760 F   0  0  0  0  0  0  0  0  0  0  0  0
  -21.3320   -3.7530   26.0250 F   0  0  0  0  0  0  0  0  0  0  0  0
  -22.7700  -13.5470   21.1280 C   0  0  0  0  0  0  0  0  0  0  0  0
  -22.0510  -12.8580   22.0080 N   0  0  0  0  0  0  0  0  0  0  0  0
  -22.3270  -14.5690   20.6070 O   0  0  0  0  0  0  0  0  0  0  0  0
  -22.4250  -12.0340   22.4550 H   0  0  0  0  0  0  0  0  0  0  0  0
  -21.1160  -13.1610   22.2370 H   0  0  0  0  0  0  0  0  0  0  0  0
  -25.3940  -15.2030   20.2810 N   0  0  0  0  0  0  0  0  0  0  0  0
  -24.6230  -15.8530   20.4030 H   0  0  0  0  0  0  0  0  0  0  0  0
  -26.2270  -15.6400   19.9100 H   0  0  0  0  0  0  0  0  0  0  0  0
  1  3  2  0
  1  2  1  0
  2  5  2  0
  3  6  1  0
  5  4  1  0
  5 48  1  0
  6  7  1  0
  6  4  2  0
  7  9  1  0
  8 19  2  0
  9 14  1  0
 10 18  1  0
 10 20  1  0
 11 17  1  0
 11 13  1  0
 12 18  1  0
 13 12  1  0
 14 13  2  0
 15 16  1  0
 15  9  2  0
 16 11  2  0
 17 10  1  0
 18  8  1  0
 20 22  2  0
 21 20  1  0
 23 21  1  0
 24 33  2  0
 24 29  1  0
 25 21  1  0
 25 29  1  0
 26 25  1  0
 27 28  1  0
 27 26  1  0
 28 24  1  0
 29 30  2  0
 30 31  1  0
 32 31  2  0
 33 32  1  0
 34  8  1  0
 34 35  1  0
 34 44  1  0
 35 38  1  0
 36 40  1  0
 36 35  1  0
 37 36  2  0
 40 39  1  0
 42 40  1  0
 42 43  1  0
 42 41  1  0
 44 47  1  1
 44 45  1  0
 46 44  1  0
 49 53  1  0
 50 52  1  0
 51 49  1  0
 51 54  1  0
 53 48  1  0
 53 50  1  0
 54 63  1  0
 54 52  1  0
 55 63  1  0
 56 61  1  0
 57 58  1  0
 57 56  1  0
 59 58  1  0
 59 68  1  0
 59 60  1  0
 61 55  1  0
 61 60  1  0
 62 55  2  0
 63 64  1  0
 65 66  2  0
 66 85  1  0
 67 66  1  0
 67 70  1  0
 68 65  1  0
 68 69  1  0
 69 67  2  0
 70 71  1  0
 71 72  2  0
 73 76  1  0
 73 72  1  0
 74 73  2  0
 75 74  1  0
 75 70  2  0
 76 77  1  0
 77 78  1  0
 78 79  2  0
 80 79  1  0
 80 84  1  0
 81 80  2  0
 82 77  2  0
 82 81  1  0
 83 82  1  0
 85 86  1  0
 86 89  1  0
 86 88  1  0
 87 85  2  0
 90 91  1  0
 90 65  1  0
 92 90  1  0
M  ISO  4   6 101   7 101  55 100  63 100
M  END
>  <TORSDO>  (52) 
F 18

>  <SCORE>  (52) 
-14.855

>  <name>  (52) 
51

>  <ligand_id>  (52) 
51

>  <original_smiles>  (52) 
[H]c1c([H])c([H])c2c(c1[H])C([H])([H])C([H])([H])C([H])([H])C2([H])N([H])C(=O)C1([H])N(C(=O)C([H])(N([H])C(=O)C([H])(N([H])C([H])([H])[H])C([H])([H])[H])C(C([H])([H])[H])(C([H])([H])[H])C([H])([H])[H])C([H])([H])c2c([H])c(Oc3c([H])c([H])c([H])c(C([H])([H])C4([H])C([H])([H])C([H])([H])C([H])(N([H])C(=O)N5C([H])([H])C([H])([H])C([H])([H])C([H])(n6nc(-c7c([H])c([H])c(Oc8c([H])c([H])c(F)c([H])c8F)c([H])c7[H])c(C(=O)N([H])[H])c6N([H])[H])C5([H])[H])C([H])([H])C4([H])[H])c3[H])c([H])c([H])c2C1([H])[H]

>  <smiles>  (52) 
[H]c1c([H])c([H])c2c(c1[H])C([H])([H])C([H])([H])C([H])([H])C2([H])N([H])C(=O)C1([H])N(C(=O)C([H])(N([H])C(=O)C([H])(N([H])C([H])([H])[H])C([H])([H])[H])C(C([H])([H])[H])(C([H])([H])[H])C([H])([H])[H])C([H])([H])c2c([H])c(Oc3c([H])c([H])c([H])c(C([H])([H])C4([H])C([H])([H])C([H])([H])C([H])(N([H])C(=O)N5C([H])([H])C([H])([H])C([H])([H])C([H])(n6nc(-c7c([H])c([H])c(Oc8c([H])c([H])c(F)c([H])c8F)c([H])c7[H])c(C(=O)N([H])[H])c6N([H])[H])C5([H])[H])C([H])([H])C4([H])[H])c3[H])c([H])c([H])c2C1([H])[H]

$$$$
52:0:0
     RDKit          3D

 97105  0  0  1  0  0  0  0  0999 V2000
  -30.6970  -23.0380   22.3590 C   0  0  0  0  0  3  0  0  0  0  0  0
  -30.9210  -21.7310   21.8740 C   0  0  0  0  0  3  0  0  0  0  0  0
  -29.7750  -23.8900   21.7170 C   0  0  0  0  0  3  0  0  0  0  0  0
  -29.2930  -22.1250   20.1100 C   0  0  0  0  0  3  0  0  0  0  0  0
  -30.2130  -21.2630   20.7440 C   0  0  0  0  0  0  0  0  0  0  0  0
  -29.0600  -23.4300   20.5890 C   0  0  0  0  0  0  0  0  0  0  0  0
  -30.4360  -19.8910   20.1730 C   0  0  0  0  0  0  0  0  0  0  0  0
  -30.6440  -18.8960   21.0440 N   0  0  0  0  0  0  0  0  0  0  0  0
  -30.3420  -19.6990   18.9590 O   0  0  0  0  0  0  0  0  0  0  0  0
  -30.6870  -19.1210   22.0270 H   0  0  0  0  0  0  0  0  0  0  0  0
  -30.7030  -17.4970   20.6330 C   0  0  0  0  0  2  0  0  0  0  0  0
  -30.8340  -16.5230   21.8220 C   0  0  0  0  0  2  0  0  0  0  0  0
  -30.7550  -14.3820   20.5330 C   0  0  0  0  0  0  0  0  0  0  0  0
  -30.3640  -12.3210   19.2380 C   0  0  0  0  0  2  0  0  0  0  0  0
  -29.4130  -12.5730   18.0540 C   0  0  0  0  0  2  0  0  0  0  0  0
  -27.9410  -12.4410   18.4930 C   0  0  0  0  0  2  0  0  0  0  0  0
  -27.6270  -13.2530   19.7760 C   0  0  0  0  0  3  0  0  0  0  0  0
  -28.6820  -12.9790   20.8710 C   0  0  0  0  0  2  0  0  0  0  0  0
  -30.0220  -13.2610   20.3170 N   0  0  0  0  0  0  0  0  0  0  0  0
  -31.7730  -14.6580   19.8930 O   0  0  0  0  0  0  0  0  0  0  0  0
  -30.3000  -15.1970   21.4960 N   0  0  0  0  0  0  0  0  0  0  0  0
  -29.4840  -14.8900   22.0070 H   0  0  0  0  0  0  0  0  0  0  0  0
  -25.2270  -13.8720   20.4840 C   0  0  0  0  0  0  0  0  0  0  0  0
  -24.1560  -13.1050   20.8590 C   0  0  0  0  0  0  0  0  0  0  0  0
  -24.6120  -11.7510   20.8300 C   0  0  0  0  0  0  0  0  0  0  0  0
  -26.2700  -12.9870   20.2540 N   0  0  0  0  0  0  0  0  0  0  0  0
  -25.9020  -11.7070   20.5180 N   0  0  0  0  0  0  0  0  0  0  0  0
  -23.8820  -10.4930   21.0300 C   0  0  0  0  0  0  0  0  0  0  0  0
  -24.3240   -9.5200   21.9550 C   0  0  0  0  0  3  0  0  0  0  0  0
  -23.5980   -8.3250   22.1400 C   0  0  0  0  0  3  0  0  0  0  0  0
  -22.4130   -8.0930   21.4030 C   0  0  0  0  0  0  0  0  0  0  0  0
  -21.9880   -9.0530   20.4670 C   0  0  0  0  0  3  0  0  0  0  0  0
  -22.7150  -10.2410   20.2800 C   0  0  0  0  0  3  0  0  0  0  0  0
  -21.6560   -6.9500   21.5000 O   0  0  0  0  0  0  0  0  0  0  0  0
  -21.6300   -6.1980   22.6460 C   0  0  0  0  0  0  0  0  0  0  0  0
  -21.2570   -6.7490   23.8910 C   0  0  0  0  0  3  0  0  0  0  0  0
  -21.1780   -5.9230   25.0310 C   0  0  0  0  0  3  0  0  0  0  0  0
  -21.4660   -4.5490   24.9260 C   0  0  0  0  0  0  0  0  0  0  0  0
  -21.8340   -3.9980   23.6860 C   0  0  0  0  0  3  0  0  0  0  0  0
  -21.9150   -4.8210   22.5500 C   0  0  0  0  0  0  0  0  0  0  0  0
  -22.2490   -4.2810   21.3530 F   0  0  0  0  0  0  0  0  0  0  0  0
  -21.3830   -3.7550   26.0190 F   0  0  0  0  0  0  0  0  0  0  0  0
  -22.7620  -13.5870   21.1350 C   0  0  0  0  0  0  0  0  0  0  0  0
  -22.0360  -12.8990   22.0080 N   0  0  0  0  0  0  0  0  0  0  0  0
  -22.3250  -14.6110   20.6090 O   0  0  0  0  0  0  0  0  0  0  0  0
  -22.4040  -12.0760   22.4610 H   0  0  0  0  0  0  0  0  0  0  0  0
  -21.0990  -13.2010   22.2320 H   0  0  0  0  0  0  0  0  0  0  0  0
  -25.3970  -15.2420   20.3050 N   0  0  0  0  0  0  0  0  0  0  0  0
  -24.6400  -15.9030   20.4260 H   0  0  0  0  0  0  0  0  0  0  0  0
  -26.2620  -15.6770   20.0080 H   0  0  0  0  0  0  0  0  0  0  0  0
  -27.9900  -24.2750   19.9090 C   0  0  0  0  0  3  0  0  0  0  0  0
  -26.8310  -24.3790   20.8190 N   0  0  0  0  0  4  0  0  0  0  0  0
  -27.0750  -24.9000   21.6430 H   0  0  0  0  0  0  0  0  0  0  0  0
  -26.5380  -23.4610   21.1040 H   0  0  0  0  0  0  0  0  0  0  0  0
  -26.0540  -24.8340   20.3720 H   0  0  0  0  0  0  0  0  0  0  0  0
  -28.4890  -25.6290   19.3260 C   0  0  0  0  0  2  0  0  0  0  0  0
  -28.3240  -26.7650   20.1820 O   0  0  0  0  0  0  0  0  0  0  0  0
  -24.5570  -31.9380   23.2530 C   0  0  0  0  0  0  0  0  0  0  0  0
  -27.1430  -27.4820   20.1410 C   0  0  0  0  0  0  0  0  0  0  0  0
  -23.3250  -30.5430   21.6260 C   0  0  0  0  0  3  0  0  0  0  0  0
  -24.7540  -29.0010   20.1830 C   0  0  0  0  0  0  0  0  0  0  0  0
  -25.8520  -30.8730   21.4180 C   0  0  0  0  0  2  0  0  0  0  0  0
  -25.9170  -29.5040   20.7800 C   0  0  0  0  0  0  0  0  0  0  0  0
  -27.1050  -28.7430   20.7750 C   0  0  0  0  0  3  0  0  0  0  0  0
  -25.9630  -27.0080   19.5120 C   0  0  0  0  0  3  0  0  0  0  0  0
  -24.7700  -27.7480   19.5520 C   0  0  0  0  0  3  0  0  0  0  0  0
  -23.5180  -29.8660   20.2430 C   0  0  0  0  0  2  0  0  0  0  0  0
  -24.5970  -31.1290   22.1590 N   0  0  0  0  0  0  0  0  0  0  0  0
  -23.4790  -32.2450   23.7820 O   0  0  0  0  0  0  0  0  0  0  0  0
  -22.6730  -29.5240   22.5880 C   0  0  0  0  0  0  0  0  0  0  0  0
  -21.3480  -29.3510   22.4670 N   0  0  0  0  0  0  0  0  0  0  0  0
  -23.3570  -28.8910   23.3970 O   0  0  0  0  0  0  0  0  0  0  0  0
  -20.8560  -29.9130   21.7850 H   0  0  0  0  0  0  0  0  0  0  0  0
  -17.9670  -28.1830   22.9710 C   0  0  0  0  0  0  0  0  0  0  0  0
  -20.5260  -28.4220   23.2410 C   0  0  0  0  0  3  0  0  0  0  0  0
  -20.6180  -26.9880   22.6690 C   0  0  0  0  0  2  0  0  0  0  0  0
  -19.5140  -26.6710   21.6560 C   0  0  0  0  0  2  0  0  0  0  0  0
  -18.1330  -26.8300   22.2990 C   0  0  0  0  0  2  0  0  0  0  0  0
  -19.0920  -28.9370   23.3980 C   0  0  0  0  0  0  0  0  0  0  0  0
  -18.8830  -30.2060   23.9840 C   0  0  0  0  0  3  0  0  0  0  0  0
  -17.5840  -30.7190   24.1470 C   0  0  0  0  0  3  0  0  0  0  0  0
  -16.4730  -29.9600   23.7370 C   0  0  0  0  0  3  0  0  0  0  0  0
  -16.6660  -28.6950   23.1550 C   0  0  0  0  0  3  0  0  0  0  0  0
  -25.8580  -32.5450   23.8690 C   0  0  0  0  0  3  0  0  0  0  0  0
  -25.5720  -33.9440   24.2090 N   0  0  0  0  0  0  0  0  0  0  0  0
  -25.9030  -34.9930   23.4450 C   0  0  0  0  0  0  0  0  0  0  0  0
  -26.5580  -34.8840   22.4030 O   0  0  0  0  0  0  0  0  0  0  0  0
  -24.9900  -34.1040   25.0180 H   0  0  0  0  0  0  0  0  0  0  0  0
  -24.1810  -36.7940   23.1170 C   0  0  0  0  0  1  0  0  0  0  0  0
  -25.4320  -36.3840   23.9090 C   0  0  0  0  0  3  0  0  0  0  0  0
  -27.5890  -37.2500   24.7010 C   0  0  0  0  0  1  0  0  0  0  0  0
  -26.4700  -37.4290   23.7780 N   0  0  0  0  0  0  0  0  0  0  0  0
  -26.0750  -38.3520   23.9360 H   0  0  0  0  0  0  0  0  0  0  0  0
  -26.3830  -31.7580   25.1340 C   0  0  1  0  0  0  0  0  0  0  0  0
  -25.2990  -31.5260   26.2110 C   0  0  0  0  0  1  0  0  0  0  0  0
  -26.9490  -30.3770   24.7260 C   0  0  0  0  0  1  0  0  0  0  0  0
  -27.5490  -32.5380   25.7870 C   0  0  0  0  0  1  0  0  0  0  0  0
  2  1  1  0
  3  1  2  0
  4  6  2  0
  4  5  1  0
  5  2  2  0
  6  3  1  0
  7  5  1  0
  7  8  1  0
  8 10  1  0
  9  7  2  0
 11  8  1  0
 11 12  1  0
 13 21  1  0
 14 19  1  0
 15 16  1  0
 15 14  1  0
 17 16  1  0
 17 26  1  0
 17 18  1  0
 19 13  1  0
 19 18  1  0
 20 13  2  0
 21 12  1  0
 21 22  1  0
 23 24  2  0
 24 43  1  0
 25 24  1  0
 25 28  1  0
 26 23  1  0
 26 27  1  0
 27 25  2  0
 28 29  1  0
 29 30  2  0
 31 34  1  0
 31 30  1  0
 32 31  2  0
 33 32  1  0
 33 28  2  0
 34 35  1  0
 35 36  1  0
 36 37  2  0
 38 37  1  0
 38 42  1  0
 39 38  2  0
 40 35  2  0
 40 39  1  0
 41 40  1  0
 43 44  1  0
 44 47  1  0
 44 46  1  0
 45 43  2  0
 48 49  1  0
 48 23  1  0
 50 48  1  0
 51 56  1  0
 51  6  1  0
 51 52  1  0
 52 54  1  0
 52 53  1  0
 55 52  1  0
 56 57  1  0
 58 69  2  0
 59 57  1  0
 59 64  1  0
 60 68  1  0
 60 70  1  0
 61 67  1  0
 61 63  1  0
 62 68  1  0
 63 62  1  0
 64 63  2  0
 65 66  1  0
 65 59  2  0
 66 61  2  0
 67 60  1  0
 68 58  1  0
 70 72  2  0
 71 70  1  0
 73 71  1  0
 74 83  2  0
 74 79  1  0
 75 71  1  0
 75 79  1  0
 76 75  1  0
 77 78  1  0
 77 76  1  0
 78 74  1  0
 79 80  2  0
 80 81  1  0
 82 81  2  0
 83 82  1  0
 84 58  1  0
 84 85  1  0
 84 94  1  0
 85 88  1  0
 86 90  1  0
 86 85  1  0
 87 86  2  0
 90 89  1  0
 92 90  1  0
 92 93  1  0
 92 91  1  0
 94 97  1  1
 94 95  1  0
 96 94  1  0
M  ISO  4  13 100  21 100  56 101  57 101
M  END
>  <TORSDO>  (53) 
F 22

>  <SCORE>  (53) 
-13.419

>  <name>  (53) 
52

>  <ligand_id>  (53) 
52

>  <original_smiles>  (53) 
[H]c1c([H])c([H])c2c(c1[H])C([H])([H])C([H])([H])C([H])([H])C2([H])N([H])C(=O)C1([H])N(C(=O)C([H])(N([H])C(=O)C([H])(N([H])C([H])([H])[H])C([H])([H])[H])C(C([H])([H])[H])(C([H])([H])[H])C([H])([H])[H])C([H])([H])c2c([H])c(OC([H])([H])C([H])(c3c([H])c([H])c([H])c(C(=O)N([H])C([H])([H])C([H])([H])N([H])C(=O)N4C([H])([H])C([H])([H])C([H])([H])C([H])(n5nc(-c6c([H])c([H])c(Oc7c([H])c([H])c(F)c([H])c7F)c([H])c6[H])c(C(=O)N([H])[H])c5N([H])[H])C4([H])[H])c3[H])[N+]([H])([H])[H])c([H])c([H])c2C1([H])[H]

>  <smiles>  (53) 
[H]c1c([H])c([H])c2c(c1[H])C([H])([H])C([H])([H])C([H])([H])C2([H])N([H])C(=O)C1([H])N(C(=O)C([H])(N([H])C(=O)C([H])(N([H])C([H])([H])[H])C([H])([H])[H])C(C([H])([H])[H])(C([H])([H])[H])C([H])([H])[H])C([H])([H])c2c([H])c(OC([H])([H])C([H])(c3c([H])c([H])c([H])c(C(=O)N([H])C([H])([H])C([H])([H])N([H])C(=O)N4C([H])([H])C([H])([H])C([H])([H])C([H])(n5nc(-c6c([H])c([H])c(Oc7c([H])c([H])c(F)c([H])c7F)c([H])c6[H])c(C(=O)N([H])[H])c5N([H])[H])C4([H])[H])c3[H])[N+]([H])([H])[H])c([H])c([H])c2C1([H])[H]

$$$$
53:0:0
     RDKit          3D

 90 99  0  0  1  0  0  0  0  0999 V2000
  -28.4020  -21.5010   20.4560 C   0  0  0  0  0  3  0  0  0  0  0  0
  -28.3390  -22.9060   20.7470 C   0  0  0  0  0  0  0  0  0  0  0  0
  -29.5730  -23.4850   20.8620 C   0  0  0  0  0  0  0  0  0  0  0  0
  -29.6840  -21.0110   20.3640 C   0  0  0  0  0  0  0  0  0  0  0  0
  -27.0940  -23.7250   20.9120 C   0  0  0  0  0  2  0  0  0  0  0  0
  -29.8420  -24.9440   21.1530 C   0  0  0  0  0  2  0  0  0  0  0  0
  -27.3510  -24.9800   21.7780 C   0  0  0  0  0  2  0  0  0  0  0  0
  -28.5710  -25.8390   21.3270 C   0  0  0  0  0  3  0  0  0  0  0  0
  -30.8400  -22.2920   20.6820 S   0  0  0  0  0  0  0  0  0  0  0  0
  -28.3400  -26.6220   20.1340 O   0  0  0  0  0  0  0  0  0  0  0  0
  -24.5870  -31.8870   23.2260 C   0  0  0  0  0  0  0  0  0  0  0  0
  -27.2210  -27.4290   20.1470 C   0  0  0  0  0  0  0  0  0  0  0  0
  -23.3820  -30.4840   21.5840 C   0  0  0  0  0  3  0  0  0  0  0  0
  -24.8370  -28.9510   20.1530 C   0  0  0  0  0  0  0  0  0  0  0  0
  -25.9120  -30.8310   21.3990 C   0  0  0  0  0  2  0  0  0  0  0  0
  -25.9960  -29.4610   20.7570 C   0  0  0  0  0  0  0  0  0  0  0  0
  -27.1920  -28.7040   20.7620 C   0  0  0  0  0  3  0  0  0  0  0  0
  -26.0570  -26.9490   19.5140 C   0  0  0  0  0  3  0  0  0  0  0  0
  -24.8630  -27.6920   19.5300 C   0  0  0  0  0  3  0  0  0  0  0  0
  -23.5940  -29.8110   20.2020 C   0  0  0  0  0  2  0  0  0  0  0  0
  -24.6450  -31.0790   22.1300 N   0  0  0  0  0  0  0  0  0  0  0  0
  -23.5010  -32.1830   23.7420 O   0  0  0  0  0  0  0  0  0  0  0  0
  -22.7270  -29.4610   22.5410 C   0  0  0  0  0  0  0  0  0  0  0  0
  -21.4020  -29.2850   22.4150 N   0  0  0  0  0  0  0  0  0  0  0  0
  -23.4090  -28.8290   23.3520 O   0  0  0  0  0  0  0  0  0  0  0  0
  -20.9130  -29.8450   21.7310 H   0  0  0  0  0  0  0  0  0  0  0  0
  -18.0220  -28.1050   22.9120 C   0  0  0  0  0  0  0  0  0  0  0  0
  -20.5820  -28.3450   23.1800 C   0  0  0  0  0  3  0  0  0  0  0  0
  -20.6750  -26.9190   22.5940 C   0  0  0  0  0  2  0  0  0  0  0  0
  -19.5690  -26.6100   21.5790 C   0  0  0  0  0  2  0  0  0  0  0  0
  -18.1890  -26.7590   22.2270 C   0  0  0  0  0  2  0  0  0  0  0  0
  -19.1450  -28.8570   23.3460 C   0  0  0  0  0  0  0  0  0  0  0  0
  -18.9360  -30.1180   23.9450 C   0  0  0  0  0  3  0  0  0  0  0  0
  -17.6350  -30.6270   24.1170 C   0  0  0  0  0  3  0  0  0  0  0  0
  -16.5250  -29.8710   23.7010 C   0  0  0  0  0  3  0  0  0  0  0  0
  -16.7190  -28.6120   23.1040 C   0  0  0  0  0  3  0  0  0  0  0  0
  -25.8750  -32.5040   23.8560 C   0  0  0  0  0  3  0  0  0  0  0  0
  -26.3910  -31.7210   25.1260 C   0  0  1  0  0  0  0  0  0  0  0  0
  -25.2960  -31.4750   26.1910 C   0  0  0  0  0  1  0  0  0  0  0  0
  -26.9730  -30.3440   24.7230 C   0  0  0  0  0  1  0  0  0  0  0  0
  -27.5430  -32.5070   25.7940 C   0  0  0  0  0  1  0  0  0  0  0  0
  -25.5710  -33.9000   24.1960 N   0  0  0  0  0  0  0  0  0  0  0  0
  -25.8920  -34.9540   23.4350 C   0  0  0  0  0  0  0  0  0  0  0  0
  -26.5480  -34.8530   22.3940 O   0  0  0  0  0  0  0  0  0  0  0  0
  -24.9870  -34.0530   25.0060 H   0  0  0  0  0  0  0  0  0  0  0  0
  -24.1480  -36.7380   23.1110 C   0  0  0  0  0  1  0  0  0  0  0  0
  -25.4060  -36.3400   23.9000 C   0  0  0  0  0  3  0  0  0  0  0  0
  -27.5530  -37.2320   24.6880 C   0  0  0  0  0  1  0  0  0  0  0  0
  -26.4320  -37.3980   23.7680 N   0  0  0  0  0  0  0  0  0  0  0  0
  -26.0250  -38.3150   23.9250 H   0  0  0  0  0  0  0  0  0  0  0  0
  -30.1430  -19.6240   19.9670 C   0  0  0  0  0  2  0  0  0  0  0  0
  -29.7770  -18.4270   20.8910 C   0  0  0  0  0  2  0  0  0  0  0  0
  -30.4080  -17.0940   20.3860 C   0  0  0  0  0  2  0  0  0  0  0  0
  -29.9920  -15.7730   21.1110 C   0  0  0  0  0  2  0  0  0  0  0  0
  -30.6670  -14.5090   20.5020 C   0  0  0  0  0  0  0  0  0  0  0  0
  -30.3570  -12.3520   19.3390 C   0  0  0  0  0  2  0  0  0  0  0  0
  -29.4240  -12.5770   18.1310 C   0  0  0  0  0  2  0  0  0  0  0  0
  -27.9460  -12.4490   18.5490 C   0  0  0  0  0  2  0  0  0  0  0  0
  -27.6110  -13.2780   19.8190 C   0  0  0  0  0  3  0  0  0  0  0  0
  -28.6610  -13.0470   20.9290 C   0  0  0  0  0  2  0  0  0  0  0  0
  -29.9880  -13.3350   20.3710 N   0  0  0  0  0  0  0  0  0  0  0  0
  -31.8010  -14.6470   20.0340 O   0  0  0  0  0  0  0  0  0  0  0  0
  -25.2120  -13.9020   20.5060 C   0  0  0  0  0  0  0  0  0  0  0  0
  -24.1370  -13.1400   20.8700 C   0  0  0  0  0  0  0  0  0  0  0  0
  -24.5890  -11.7850   20.8510 C   0  0  0  0  0  0  0  0  0  0  0  0
  -26.2530  -13.0140   20.2890 N   0  0  0  0  0  0  0  0  0  0  0  0
  -25.8820  -11.7350   20.5530 N   0  0  0  0  0  0  0  0  0  0  0  0
  -23.8530  -10.5280   21.0420 C   0  0  0  0  0  0  0  0  0  0  0  0
  -24.2780   -9.5580   21.9760 C   0  0  0  0  0  3  0  0  0  0  0  0
  -23.5440   -8.3660   22.1550 C   0  0  0  0  0  3  0  0  0  0  0  0
  -22.3680   -8.1370   21.4010 C   0  0  0  0  0  0  0  0  0  0  0  0
  -21.9620   -9.0950   20.4570 C   0  0  0  0  0  3  0  0  0  0  0  0
  -22.6970  -10.2790   20.2760 C   0  0  0  0  0  3  0  0  0  0  0  0
  -21.6060   -6.9980   21.4900 O   0  0  0  0  0  0  0  0  0  0  0  0
  -21.5580   -6.2500   22.6400 C   0  0  0  0  0  0  0  0  0  0  0  0
  -21.1490   -6.8060   23.8730 C   0  0  0  0  0  3  0  0  0  0  0  0
  -21.0490   -5.9860   25.0140 C   0  0  0  0  0  3  0  0  0  0  0  0
  -21.3460   -4.6120   24.9250 C   0  0  0  0  0  0  0  0  0  0  0  0
  -21.7460   -4.0570   23.6970 C   0  0  0  0  0  3  0  0  0  0  0  0
  -21.8490   -4.8740   22.5580 C   0  0  0  0  0  0  0  0  0  0  0  0
  -22.2160   -4.3300   21.3720 F   0  0  0  0  0  0  0  0  0  0  0  0
  -21.2410   -3.8240   26.0200 F   0  0  0  0  0  0  0  0  0  0  0  0
  -22.7400  -13.6270   21.1300 C   0  0  0  0  0  0  0  0  0  0  0  0
  -22.0010  -12.9400   21.9940 N   0  0  0  0  0  0  0  0  0  0  0  0
  -22.3140  -14.6530   20.6020 O   0  0  0  0  0  0  0  0  0  0  0  0
  -22.3590  -12.1100   22.4430 H   0  0  0  0  0  0  0  0  0  0  0  0
  -21.0650  -13.2490   22.2100 H   0  0  0  0  0  0  0  0  0  0  0  0
  -25.3880  -15.2720   20.3230 N   0  0  0  0  0  0  0  0  0  0  0  0
  -24.6260  -15.9340   20.4230 H   0  0  0  0  0  0  0  0  0  0  0  0
  -26.2500  -15.7030   20.0120 H   0  0  0  0  0  0  0  0  0  0  0  0
  1  2  1  0
  2  3  2  0
  2  5  1  0
  3  6  1  0
  4  1  2  0
  4  9  1  0
  5  7  1  0
  6  8  1  0
  8 10  1  0
  8  7  1  0
  9  3  1  0
 10 12  1  0
 11 22  2  0
 12 17  1  0
 13 21  1  0
 13 23  1  0
 14 20  1  0
 14 16  1  0
 15 21  1  0
 16 17  2  0
 16 15  1  0
 18 19  1  0
 18 12  2  0
 19 14  2  0
 20 13  1  0
 21 11  1  0
 23 25  2  0
 24 23  1  0
 26 24  1  0
 27 36  2  0
 27 32  1  0
 28 24  1  0
 28 32  1  0
 29 28  1  0
 30 31  1  0
 30 29  1  0
 31 27  1  0
 32 33  2  0
 33 34  1  0
 35 34  2  0
 36 35  1  0
 37 11  1  0
 37 42  1  0
 37 38  1  0
 38 41  1  1
 38 39  1  0
 40 38  1  0
 42 45  1  0
 43 47  1  0
 43 42  1  0
 44 43  2  0
 47 46  1  0
 49 47  1  0
 49 50  1  0
 49 48  1  0
 51  4  1  0
 51 52  1  0
 53 52  1  0
 53 54  1  0
 55 54  1  0
 56 61  1  0
 57 58  1  0
 57 56  1  0
 59 58  1  0
 59 66  1  0
 59 60  1  0
 61 55  1  0
 61 60  1  0
 62 55  2  0
 63 64  2  0
 64 83  1  0
 65 64  1  0
 65 68  1  0
 66 63  1  0
 66 67  1  0
 67 65  2  0
 68 69  1  0
 69 70  2  0
 71 74  1  0
 71 70  1  0
 72 71  2  0
 73 72  1  0
 73 68  2  0
 74 75  1  0
 75 76  1  0
 76 77  2  0
 78 77  1  0
 78 82  1  0
 79 78  2  0
 80 75  2  0
 80 79  1  0
 81 80  1  0
 83 84  1  0
 84 87  1  0
 84 86  1  0
 85 83  2  0
 88 89  1  0
 88 63  1  0
 90 88  1  0
M  ISO  4   8 101  10 101  54 100  55 100
M  END
>  <TORSDO>  (54) 
F 20

>  <SCORE>  (54) 
-13.974

>  <name>  (54) 
53

>  <ligand_id>  (54) 
53

>  <original_smiles>  (54) 
[H]c1c([H])c([H])c2c(c1[H])C([H])([H])C([H])([H])C([H])([H])C2([H])N([H])C(=O)C1([H])N(C(=O)C([H])(N([H])C(=O)C([H])(N([H])C([H])([H])[H])C([H])([H])[H])C(C([H])([H])[H])(C([H])([H])[H])C([H])([H])[H])C([H])([H])c2c([H])c(OC3([H])C([H])([H])c4sc(C([H])([H])C([H])([H])C([H])([H])C([H])([H])C(=O)N5C([H])([H])C([H])([H])C([H])([H])C([H])(n6nc(-c7c([H])c([H])c(Oc8c([H])c([H])c(F)c([H])c8F)c([H])c7[H])c(C(=O)N([H])[H])c6N([H])[H])C5([H])[H])c([H])c4C([H])([H])C3([H])[H])c([H])c([H])c2C1([H])[H]

>  <smiles>  (54) 
[H]c1c([H])c([H])c2c(c1[H])C([H])([H])C([H])([H])C([H])([H])C2([H])N([H])C(=O)C1([H])N(C(=O)C([H])(N([H])C(=O)C([H])(N([H])C([H])([H])[H])C([H])([H])[H])C(C([H])([H])[H])(C([H])([H])[H])C([H])([H])[H])C([H])([H])c2c([H])c(OC3([H])C([H])([H])c4sc(C([H])([H])C([H])([H])C([H])([H])C([H])([H])C(=O)N5C([H])([H])C([H])([H])C([H])([H])C([H])(n6nc(-c7c([H])c([H])c(Oc8c([H])c([H])c(F)c([H])c8F)c([H])c7[H])c(C(=O)N([H])[H])c6N([H])[H])C5([H])[H])c([H])c4C([H])([H])C3([H])[H])c([H])c([H])c2C1([H])[H]

$$$$
54:0:0
     RDKit          3D

 96105  0  0  1  0  0  0  0  0999 V2000
  -29.5960  -23.5280   21.5540 C   0  0  0  0  0  2  0  0  0  0  0  0
  -29.3410  -25.0480   21.5960 C   0  0  0  0  0  2  0  0  0  0  0  0
  -28.8050  -22.9950   20.3440 C   0  0  0  0  0  3  0  0  0  0  0  0
  -28.5750  -24.2530   19.4740 C   0  0  0  0  0  3  0  0  0  0  0  0
  -28.2680  -25.3370   20.5350 C   0  0  0  0  0  3  0  0  0  0  0  0
  -30.1260  -20.4810   17.7240 C   0  0  0  0  0  3  0  0  0  0  0  0
  -29.6420  -21.6730   18.2940 C   0  0  0  0  0  3  0  0  0  0  0  0
  -30.3820  -19.3570   18.5290 C   0  0  0  0  0  3  0  0  0  0  0  0
  -29.6820  -20.6090   20.4900 C   0  0  0  0  0  3  0  0  0  0  0  0
  -29.4080  -21.7460   19.6870 C   0  0  0  0  0  0  0  0  0  0  0  0
  -30.1570  -19.3990   19.9280 C   0  0  0  0  0  0  0  0  0  0  0  0
  -31.5130  -18.4850   21.6620 C   0  0  0  0  0  1  0  0  0  0  0  0
  -30.3760  -18.2790   20.7640 N   0  0  0  0  0  0  0  0  0  0  0  0
  -30.3160  -16.9610   20.1120 C   0  0  0  0  0  2  0  0  0  0  0  0
  -30.0490  -15.7470   21.0560 C   0  0  0  0  0  2  0  0  0  0  0  0
  -30.6800  -14.4590   20.4860 C   0  0  0  0  0  0  0  0  0  0  0  0
  -30.3360  -12.3180   19.3360 C   0  0  0  0  0  2  0  0  0  0  0  0
  -29.4030  -12.5450   18.1280 C   0  0  0  0  0  2  0  0  0  0  0  0
  -27.9250  -12.4300   18.5480 C   0  0  0  0  0  2  0  0  0  0  0  0
  -27.5940  -13.2670   19.8110 C   0  0  0  0  0  3  0  0  0  0  0  0
  -28.6420  -13.0340   20.9190 C   0  0  0  0  0  2  0  0  0  0  0  0
  -29.9750  -13.3050   20.3640 N   0  0  0  0  0  0  0  0  0  0  0  0
  -31.8200  -14.5660   20.0290 O   0  0  0  0  0  0  0  0  0  0  0  0
  -25.1950  -13.8830   20.5140 C   0  0  0  0  0  0  0  0  0  0  0  0
  -24.1230  -13.1170   20.8820 C   0  0  0  0  0  0  0  0  0  0  0  0
  -24.5810  -11.7640   20.8620 C   0  0  0  0  0  0  0  0  0  0  0  0
  -26.2380  -12.9990   20.2890 N   0  0  0  0  0  0  0  0  0  0  0  0
  -25.8720  -11.7180   20.5560 N   0  0  0  0  0  0  0  0  0  0  0  0
  -23.8510  -10.5060   21.0610 C   0  0  0  0  0  0  0  0  0  0  0  0
  -24.2940   -9.5300   21.9820 C   0  0  0  0  0  3  0  0  0  0  0  0
  -23.5660   -8.3350   22.1670 C   0  0  0  0  0  3  0  0  0  0  0  0
  -22.3780   -8.1070   21.4290 C   0  0  0  0  0  0  0  0  0  0  0  0
  -21.9550   -9.0700   20.4980 C   0  0  0  0  0  3  0  0  0  0  0  0
  -22.6830  -10.2560   20.3120 C   0  0  0  0  0  3  0  0  0  0  0  0
  -21.6170   -6.9660   21.5250 O   0  0  0  0  0  0  0  0  0  0  0  0
  -21.6030   -6.2060   22.6670 C   0  0  0  0  0  0  0  0  0  0  0  0
  -21.2410   -6.7480   23.9200 C   0  0  0  0  0  3  0  0  0  0  0  0
  -21.1700   -5.9120   25.0530 C   0  0  0  0  0  3  0  0  0  0  0  0
  -21.4510   -4.5390   24.9350 C   0  0  0  0  0  0  0  0  0  0  0  0
  -21.8060   -3.9960   23.6890 C   0  0  0  0  0  3  0  0  0  0  0  0
  -21.8800   -4.8280   22.5560 C   0  0  0  0  0  0  0  0  0  0  0  0
  -22.2010   -4.2970   21.3520 F   0  0  0  0  0  0  0  0  0  0  0  0
  -21.3760   -3.7350   26.0220 F   0  0  0  0  0  0  0  0  0  0  0  0
  -22.7260  -13.5990   21.1470 C   0  0  0  0  0  0  0  0  0  0  0  0
  -21.9980  -12.9120   22.0200 N   0  0  0  0  0  0  0  0  0  0  0  0
  -22.2930  -14.6220   20.6180 O   0  0  0  0  0  0  0  0  0  0  0  0
  -22.3660  -12.0880   22.4710 H   0  0  0  0  0  0  0  0  0  0  0  0
  -21.0590  -13.2120   22.2420 H   0  0  0  0  0  0  0  0  0  0  0  0
  -25.3690  -15.2530   20.3260 N   0  0  0  0  0  0  0  0  0  0  0  0
  -24.6120  -15.9200   20.4320 H   0  0  0  0  0  0  0  0  0  0  0  0
  -26.2350  -15.6780   20.0250 H   0  0  0  0  0  0  0  0  0  0  0  0
  -27.5060  -24.0630   18.4730 N   0  0  0  0  0  4  0  0  0  0  0  0
  -26.6220  -23.8460   18.8980 H   0  0  0  0  0  0  0  0  0  0  0  0
  -27.7390  -23.3060   17.8550 H   0  0  0  0  0  0  0  0  0  0  0  0
  -27.3970  -24.8930   17.9150 H   0  0  0  0  0  0  0  0  0  0  0  0
  -28.3650  -26.7080   20.1030 O   0  0  0  0  0  0  0  0  0  0  0  0
  -24.6100  -31.9080   23.2530 C   0  0  0  0  0  0  0  0  0  0  0  0
  -27.1990  -27.4460   20.1400 C   0  0  0  0  0  0  0  0  0  0  0  0
  -23.3790  -30.5050   21.6340 C   0  0  0  0  0  3  0  0  0  0  0  0
  -24.8110  -28.9650   20.1940 C   0  0  0  0  0  0  0  0  0  0  0  0
  -25.9070  -30.8510   21.4070 C   0  0  0  0  0  2  0  0  0  0  0  0
  -25.9820  -29.4820   20.7640 C   0  0  0  0  0  0  0  0  0  0  0  0
  -27.1840  -28.7350   20.7260 C   0  0  0  0  0  3  0  0  0  0  0  0
  -26.0050  -26.9470   19.5710 C   0  0  0  0  0  3  0  0  0  0  0  0
  -24.8180  -27.6950   19.5970 C   0  0  0  0  0  3  0  0  0  0  0  0
  -23.5710  -29.8270   20.2530 C   0  0  0  0  0  2  0  0  0  0  0  0
  -24.6510  -31.0980   22.1590 N   0  0  0  0  0  0  0  0  0  0  0  0
  -23.5310  -32.2060   23.7820 O   0  0  0  0  0  0  0  0  0  0  0  0
  -22.7370  -29.4830   22.6000 C   0  0  0  0  0  0  0  0  0  0  0  0
  -21.4140  -29.2910   22.4750 N   0  0  0  0  0  0  0  0  0  0  0  0
  -23.4260  -28.8650   23.4160 O   0  0  0  0  0  0  0  0  0  0  0  0
  -20.9190  -29.8420   21.7870 H   0  0  0  0  0  0  0  0  0  0  0  0
  -18.0500  -28.0600   22.9610 C   0  0  0  0  0  0  0  0  0  0  0  0
  -20.6020  -28.3530   23.2490 C   0  0  0  0  0  3  0  0  0  0  0  0
  -20.7270  -26.9170   22.6920 C   0  0  0  0  0  2  0  0  0  0  0  0
  -19.6370  -26.5670   21.6730 C   0  0  0  0  0  2  0  0  0  0  0  0
  -18.2490  -26.7050   22.3040 C   0  0  0  0  0  2  0  0  0  0  0  0
  -19.1550  -28.8410   23.3910 C   0  0  0  0  0  0  0  0  0  0  0  0
  -18.9190  -30.1090   23.9640 C   0  0  0  0  0  3  0  0  0  0  0  0
  -17.6060  -30.5980   24.1120 C   0  0  0  0  0  3  0  0  0  0  0  0
  -16.5150  -29.8150   23.6990 C   0  0  0  0  0  3  0  0  0  0  0  0
  -16.7360  -28.5490   23.1300 C   0  0  0  0  0  3  0  0  0  0  0  0
  -25.9050  -32.5240   23.8670 C   0  0  0  0  0  3  0  0  0  0  0  0
  -25.6070  -33.9220   24.2080 N   0  0  0  0  0  0  0  0  0  0  0  0
  -25.9240  -34.9740   23.4430 C   0  0  0  0  0  0  0  0  0  0  0  0
  -26.5730  -34.8690   22.3970 O   0  0  0  0  0  0  0  0  0  0  0  0
  -25.0300  -34.0760   25.0230 H   0  0  0  0  0  0  0  0  0  0  0  0
  -24.1840  -36.7600   23.1290 C   0  0  0  0  0  1  0  0  0  0  0  0
  -25.4460  -36.3610   23.9100 C   0  0  0  0  0  3  0  0  0  0  0  0
  -27.6000  -37.2460   24.6830 C   0  0  0  0  0  1  0  0  0  0  0  0
  -26.4730  -37.4140   23.7690 N   0  0  0  0  0  0  0  0  0  0  0  0
  -26.0710  -38.3340   23.9270 H   0  0  0  0  0  0  0  0  0  0  0  0
  -26.4340  -31.7420   25.1320 C   0  0  1  0  0  0  0  0  0  0  0  0
  -25.3540  -31.5040   26.2120 C   0  0  0  0  0  1  0  0  0  0  0  0
  -27.0070  -30.3660   24.7240 C   0  0  0  0  0  1  0  0  0  0  0  0
  -27.5980  -32.5270   25.7830 C   0  0  0  0  0  1  0  0  0  0  0  0
  1  2  1  0
  3 10  1  0
  3  1  1  0
  4 52  1  0
  4  3  1  0
  4  5  1  0
  5 56  1  0
  5  2  1  0
  6  7  2  0
  6  8  1  0
  7 10  1  0
  8 11  2  0
 10  9  2  0
 11  9  1  0
 11 13  1  0
 13 12  1  0
 14 13  1  0
 14 15  1  0
 16 15  1  0
 17 22  1  0
 18 19  1  0
 18 17  1  0
 20 19  1  0
 20 27  1  0
 20 21  1  0
 22 16  1  0
 22 21  1  0
 23 16  2  0
 24 25  2  0
 25 44  1  0
 26 25  1  0
 26 29  1  0
 27 24  1  0
 27 28  1  0
 28 26  2  0
 29 30  1  0
 30 31  2  0
 32 35  1  0
 32 31  1  0
 33 32  2  0
 34 33  1  0
 34 29  2  0
 35 36  1  0
 36 37  1  0
 37 38  2  0
 39 38  1  0
 39 43  1  0
 40 39  2  0
 41 36  2  0
 41 40  1  0
 42 41  1  0
 44 45  1  0
 45 48  1  0
 45 47  1  0
 46 44  2  0
 49 50  1  0
 49 24  1  0
 51 49  1  0
 52 53  1  0
 54 52  1  0
 55 52  1  0
 56 58  1  0
 57 68  2  0
 58 63  1  0
 59 67  1  0
 59 69  1  0
 60 66  1  0
 60 62  1  0
 61 67  1  0
 62 61  1  0
 63 62  2  0
 64 65  1  0
 64 58  2  0
 65 60  2  0
 66 59  1  0
 67 57  1  0
 69 71  2  0
 70 69  1  0
 72 70  1  0
 73 82  2  0
 73 78  1  0
 74 70  1  0
 74 78  1  0
 75 74  1  0
 76 77  1  0
 76 75  1  0
 77 73  1  0
 78 79  2  0
 79 80  1  0
 81 80  2  0
 82 81  1  0
 83 57  1  0
 83 84  1  0
 83 93  1  0
 84 87  1  0
 85 89  1  0
 85 84  1  0
 86 85  2  0
 89 88  1  0
 91 89  1  0
 91 92  1  0
 91 90  1  0
 93 96  1  1
 93 94  1  0
 95 93  1  0
M  ISO  4   5 101  15 100  16 100  56 101
M  END
>  <TORSDO>  (55) 
F 21

>  <SCORE>  (55) 
-13.860

>  <name>  (55) 
54

>  <ligand_id>  (55) 
54

>  <original_smiles>  (55) 
[H]c1c([H])c([H])c2c(c1[H])C([H])([H])C([H])([H])C([H])([H])C2([H])N([H])C(=O)C1([H])N(C(=O)C([H])(N([H])C(=O)C([H])(N([H])C([H])([H])[H])C([H])([H])[H])C(C([H])([H])[H])(C([H])([H])[H])C([H])([H])[H])C([H])([H])c2c([H])c(OC3([H])C([H])([H])C([H])([H])C([H])(c4c([H])c([H])c([H])c(N(C([H])([H])[H])C([H])([H])C([H])([H])C(=O)N5C([H])([H])C([H])([H])C([H])([H])C([H])(n6nc(-c7c([H])c([H])c(Oc8c([H])c([H])c(F)c([H])c8F)c([H])c7[H])c(C(=O)N([H])[H])c6N([H])[H])C5([H])[H])c4[H])C3([H])[N+]([H])([H])[H])c([H])c([H])c2C1([H])[H]

>  <smiles>  (55) 
[H]c1c([H])c([H])c2c(c1[H])C([H])([H])C([H])([H])C([H])([H])C2([H])N([H])C(=O)C1([H])N(C(=O)C([H])(N([H])C(=O)C([H])(N([H])C([H])([H])[H])C([H])([H])[H])C(C([H])([H])[H])(C([H])([H])[H])C([H])([H])[H])C([H])([H])c2c([H])c(OC3([H])C([H])([H])C([H])([H])C([H])(c4c([H])c([H])c([H])c(N(C([H])([H])[H])C([H])([H])C([H])([H])C(=O)N5C([H])([H])C([H])([H])C([H])([H])C([H])(n6nc(-c7c([H])c([H])c(Oc8c([H])c([H])c(F)c([H])c8F)c([H])c7[H])c(C(=O)N([H])[H])c6N([H])[H])C5([H])[H])c4[H])C3([H])[N+]([H])([H])[H])c([H])c([H])c2C1([H])[H]

$$$$
55:0:0
     RDKit          3D

 92101  0  0  1  0  0  0  0  0999 V2000
  -30.7050  -14.6450   20.4500 C   0  0  0  0  0  0  0  0  0  0  0  0
  -30.4360  -12.4180   19.4050 C   0  0  0  0  0  2  0  0  0  0  0  0
  -29.5130  -12.5440   18.1750 C   0  0  0  0  0  2  0  0  0  0  0  0
  -28.0370  -12.3980   18.5930 C   0  0  0  0  0  2  0  0  0  0  0  0
  -27.6630  -13.2850   19.8110 C   0  0  0  0  0  3  0  0  0  0  0  0
  -28.7100  -13.1650   20.9410 C   0  0  0  0  0  2  0  0  0  0  0  0
  -30.0290  -13.4610   20.3630 N   0  0  0  0  0  0  0  0  0  0  0  0
  -31.8900  -14.7390   20.1140 O   0  0  0  0  0  0  0  0  0  0  0  0
  -30.3150  -21.0690   19.2000 C   0  0  0  0  0  2  0  0  0  0  0  0
  -30.8620  -19.6570   19.4800 C   0  0  0  0  0  2  0  0  0  0  0  0
  -30.6720  -18.0910   21.5230 C   0  0  0  0  0  2  0  0  0  0  0  0
  -28.9590  -17.9540   19.7110 C   0  0  0  0  0  2  0  0  0  0  0  0
  -29.0870  -20.1750   21.0480 C   0  0  0  0  0  2  0  0  0  0  0  0
  -30.1350  -16.6460   21.8180 C   0  0  0  0  0  2  0  0  0  0  0  0
  -29.6170  -16.5720   19.4160 C   0  0  0  0  0  2  0  0  0  0  0  0
  -29.6980  -21.5210   20.5240 C   0  0  0  0  0  3  0  0  0  0  0  0
  -29.8900  -18.9460   20.4630 C   0  0  2  0  0  0  0  0  0  0  0  0
  -29.9600  -15.7830   20.6240 N   0  0  0  0  0  0  0  0  0  0  0  0
  -25.2680  -13.9040   20.5030 C   0  0  0  0  0  0  0  0  0  0  0  0
  -24.1910  -13.1390   20.8580 C   0  0  0  0  0  0  0  0  0  0  0  0
  -24.6440  -11.7840   20.8370 C   0  0  0  0  0  0  0  0  0  0  0  0
  -26.3090  -13.0150   20.2850 N   0  0  0  0  0  0  0  0  0  0  0  0
  -25.9380  -11.7360   20.5450 N   0  0  0  0  0  0  0  0  0  0  0  0
  -23.9080  -10.5270   21.0200 C   0  0  0  0  0  0  0  0  0  0  0  0
  -24.3220   -9.5600   21.9640 C   0  0  0  0  0  3  0  0  0  0  0  0
  -23.5880   -8.3670   22.1360 C   0  0  0  0  0  3  0  0  0  0  0  0
  -22.4250   -8.1300   21.3640 C   0  0  0  0  0  0  0  0  0  0  0  0
  -22.0310   -9.0860   20.4100 C   0  0  0  0  0  3  0  0  0  0  0  0
  -22.7650  -10.2700   20.2360 C   0  0  0  0  0  3  0  0  0  0  0  0
  -21.6650   -6.9890   21.4440 O   0  0  0  0  0  0  0  0  0  0  0  0
  -21.5860   -6.2580   22.6010 C   0  0  0  0  0  0  0  0  0  0  0  0
  -21.1110   -6.8200   23.8060 C   0  0  0  0  0  3  0  0  0  0  0  0
  -20.9820   -6.0130   24.9560 C   0  0  0  0  0  3  0  0  0  0  0  0
  -21.3130   -4.6470   24.8990 C   0  0  0  0  0  0  0  0  0  0  0  0
  -21.7810   -4.0850   23.6980 C   0  0  0  0  0  3  0  0  0  0  0  0
  -21.9140   -4.8880   22.5520 C   0  0  0  0  0  0  0  0  0  0  0  0
  -22.3450   -4.3380   21.3920 F   0  0  0  0  0  0  0  0  0  0  0  0
  -21.1810   -3.8700   25.9990 F   0  0  0  0  0  0  0  0  0  0  0  0
  -22.7920  -13.6250   21.1110 C   0  0  0  0  0  0  0  0  0  0  0  0
  -22.0520  -12.9380   21.9740 N   0  0  0  0  0  0  0  0  0  0  0  0
  -22.3650  -14.6500   20.5810 O   0  0  0  0  0  0  0  0  0  0  0  0
  -22.4100  -12.1110   22.4260 H   0  0  0  0  0  0  0  0  0  0  0  0
  -21.1140  -13.2470   22.1890 H   0  0  0  0  0  0  0  0  0  0  0  0
  -25.4470  -15.2720   20.3270 N   0  0  0  0  0  0  0  0  0  0  0  0
  -24.6910  -15.9410   20.4290 H   0  0  0  0  0  0  0  0  0  0  0  0
  -26.3190  -15.7000   20.0420 H   0  0  0  0  0  0  0  0  0  0  0  0
  -28.7270  -22.6660   20.3830 N   0  0  0  0  0  4  0  0  0  0  0  0
  -28.0940  -22.6070   21.1660 H   0  0  0  0  0  0  0  0  0  0  0  0
  -28.1780  -22.4970   19.5550 H   0  0  0  0  0  0  0  0  0  0  0  0
  -29.2500  -24.0880   20.3460 C   0  0  0  0  0  2  0  0  0  0  0  0
  -28.1400  -25.1460   19.9870 C   0  0  0  0  0  2  0  0  0  0  0  0
  -28.3890  -26.5870   20.1640 O   0  0  0  0  0  0  0  0  0  0  0  0
  -24.6370  -31.8890   23.2630 C   0  0  0  0  0  0  0  0  0  0  0  0
  -27.2640  -27.4180   20.1200 C   0  0  0  0  0  0  0  0  0  0  0  0
  -23.4370  -30.5140   21.6020 C   0  0  0  0  0  3  0  0  0  0  0  0
  -24.8920  -29.0060   20.1450 C   0  0  0  0  0  0  0  0  0  0  0  0
  -25.9740  -30.8470   21.4280 C   0  0  0  0  0  2  0  0  0  0  0  0
  -26.0560  -29.4860   20.7540 C   0  0  0  0  0  0  0  0  0  0  0  0
  -27.2460  -28.7040   20.7370 C   0  0  0  0  0  3  0  0  0  0  0  0
  -26.0740  -26.9910   19.4800 C   0  0  0  0  0  3  0  0  0  0  0  0
  -24.9010  -27.7620   19.5000 C   0  0  0  0  0  3  0  0  0  0  0  0
  -23.6510  -29.8690   20.2090 C   0  0  0  0  0  2  0  0  0  0  0  0
  -24.7030  -31.0940   22.1580 N   0  0  0  0  0  0  0  0  0  0  0  0
  -23.5480  -32.1810   23.7760 O   0  0  0  0  0  0  0  0  0  0  0  0
  -22.7770  -29.4740   22.5380 C   0  0  0  0  0  0  0  0  0  0  0  0
  -21.4510  -29.2990   22.4050 N   0  0  0  0  0  0  0  0  0  0  0  0
  -23.4550  -28.8270   23.3410 O   0  0  0  0  0  0  0  0  0  0  0  0
  -20.9650  -29.8710   21.7290 H   0  0  0  0  0  0  0  0  0  0  0  0
  -18.0670  -28.1170   22.8870 C   0  0  0  0  0  0  0  0  0  0  0  0
  -20.6290  -28.3470   23.1520 C   0  0  0  0  0  3  0  0  0  0  0  0
  -20.7160  -26.9320   22.5350 C   0  0  0  0  0  2  0  0  0  0  0  0
  -19.6060  -26.6470   21.5190 C   0  0  0  0  0  2  0  0  0  0  0  0
  -18.2290  -26.7860   22.1740 C   0  0  0  0  0  2  0  0  0  0  0  0
  -19.1940  -28.8580   23.3330 C   0  0  0  0  0  0  0  0  0  0  0  0
  -18.9890  -30.1060   23.9600 C   0  0  0  0  0  3  0  0  0  0  0  0
  -17.6900  -30.6140   24.1460 C   0  0  0  0  0  3  0  0  0  0  0  0
  -16.5770  -29.8690   23.7170 C   0  0  0  0  0  3  0  0  0  0  0  0
  -16.7660  -28.6240   23.0930 C   0  0  0  0  0  3  0  0  0  0  0  0
  -25.9190  -32.4970   23.9110 C   0  0  0  0  0  3  0  0  0  0  0  0
  -25.6220  -33.8970   24.2450 N   0  0  0  0  0  0  0  0  0  0  0  0
  -25.9390  -34.9450   23.4730 C   0  0  0  0  0  0  0  0  0  0  0  0
  -26.5870  -34.8360   22.4280 O   0  0  0  0  0  0  0  0  0  0  0  0
  -25.0460  -34.0560   25.0590 H   0  0  0  0  0  0  0  0  0  0  0  0
  -24.1900  -36.7260   23.1640 C   0  0  0  0  0  1  0  0  0  0  0  0
  -25.4620  -36.3360   23.9340 C   0  0  0  0  0  3  0  0  0  0  0  0
  -27.6190  -37.2390   24.6830 C   0  0  0  0  0  1  0  0  0  0  0  0
  -26.4860  -37.3910   23.7730 N   0  0  0  0  0  0  0  0  0  0  0  0
  -26.0810  -38.3120   23.9200 H   0  0  0  0  0  0  0  0  0  0  0  0
  -26.4090  -31.7140   25.1910 C   0  0  1  0  0  0  0  0  0  0  0  0
  -25.2960  -31.4820   26.2400 C   0  0  0  0  0  1  0  0  0  0  0  0
  -26.9850  -30.3330   24.8010 C   0  0  0  0  0  1  0  0  0  0  0  0
  -27.5570  -32.4940   25.8750 C   0  0  0  0  0  1  0  0  0  0  0  0
  1 18  1  0
  2  7  1  0
  3  4  1  0
  3  2  1  0
  5  4  1  0
  5 22  1  0
  5  6  1  0
  7  1  1  0
  7  6  1  0
  8  1  2  0
  9 10  1  0
  9 16  1  0
 11 14  1  0
 17 12  1  6
 15 12  1  0
 15 18  1  0
 16 47  1  0
 16 13  1  0
 17 10  1  0
 17 13  1  0
 17 11  1  0
 18 14  1  0
 19 20  2  0
 20 39  1  0
 21 20  1  0
 21 24  1  0
 22 19  1  0
 22 23  1  0
 23 21  2  0
 24 25  1  0
 25 26  2  0
 27 30  1  0
 27 26  1  0
 28 27  2  0
 29 28  1  0
 29 24  2  0
 30 31  1  0
 31 32  1  0
 32 33  2  0
 34 33  1  0
 34 38  1  0
 35 34  2  0
 36 31  2  0
 36 35  1  0
 37 36  1  0
 39 40  1  0
 40 43  1  0
 40 42  1  0
 41 39  2  0
 44 45  1  0
 44 19  1  0
 46 44  1  0
 47 48  1  0
 49 47  1  0
 50 47  1  0
 51 52  1  0
 51 50  1  0
 53 64  2  0
 54 52  1  0
 54 59  1  0
 55 63  1  0
 55 65  1  0
 56 62  1  0
 56 58  1  0
 57 63  1  0
 58 57  1  0
 59 58  2  0
 60 61  1  0
 60 54  2  0
 61 56  2  0
 62 55  1  0
 63 53  1  0
 65 67  2  0
 66 65  1  0
 68 66  1  0
 69 78  2  0
 69 74  1  0
 70 66  1  0
 70 74  1  0
 71 70  1  0
 72 73  1  0
 72 71  1  0
 73 69  1  0
 74 75  2  0
 75 76  1  0
 77 76  2  0
 78 77  1  0
 79 53  1  0
 79 80  1  0
 79 89  1  0
 80 83  1  0
 81 85  1  0
 81 80  1  0
 82 81  2  0
 85 84  1  0
 87 88  1  0
 87 85  1  0
 87 86  1  0
 89 92  1  1
 89 90  1  0
 91 89  1  0
M  ISO  4   1 100  18 100  51 101  52 101
M  END
>  <TORSDO>  (56) 
F 18

>  <SCORE>  (56) 
-14.764

>  <name>  (56) 
55

>  <ligand_id>  (56) 
55

>  <original_smiles>  (56) 
[H]c1c([H])c([H])c2c(c1[H])C([H])([H])C([H])([H])C([H])([H])C2([H])N([H])C(=O)C1([H])N(C(=O)C([H])(N([H])C(=O)C([H])(N([H])C([H])([H])[H])C([H])([H])[H])C(C([H])([H])[H])(C([H])([H])[H])C([H])([H])[H])C([H])([H])c2c([H])c(OC([H])([H])C([H])([H])[N+]([H])([H])C3([H])C([H])([H])C([H])([H])C4(C([H])([H])C([H])([H])N(C(=O)N5C([H])([H])C([H])([H])C([H])([H])C([H])(n6nc(-c7c([H])c([H])c(Oc8c([H])c([H])c(F)c([H])c8F)c([H])c7[H])c(C(=O)N([H])[H])c6N([H])[H])C5([H])[H])C([H])([H])C4([H])[H])C3([H])[H])c([H])c([H])c2C1([H])[H]

>  <smiles>  (56) 
[H]c1c([H])c([H])c2c(c1[H])C([H])([H])C([H])([H])C([H])([H])C2([H])N([H])C(=O)C1([H])N(C(=O)C([H])(N([H])C(=O)C([H])(N([H])C([H])([H])[H])C([H])([H])[H])C(C([H])([H])[H])(C([H])([H])[H])C([H])([H])[H])C([H])([H])c2c([H])c(OC([H])([H])C([H])([H])[N+]([H])([H])C3([H])C([H])([H])C([H])([H])C4(C([H])([H])C([H])([H])N(C(=O)N5C([H])([H])C([H])([H])C([H])([H])C([H])(n6nc(-c7c([H])c([H])c(Oc8c([H])c([H])c(F)c([H])c8F)c([H])c7[H])c(C(=O)N([H])[H])c6N([H])[H])C5([H])[H])C([H])([H])C4([H])[H])C3([H])[H])c([H])c([H])c2C1([H])[H]

$$$$
56:0:0
     RDKit          3D

 97106  0  0  1  0  0  0  0  0999 V2000
  -28.5980  -20.9180   19.2700 C   0  0  0  0  0  3  0  0  0  0  0  0
  -30.9020  -21.6570   19.5280 C   0  0  0  0  0  3  0  0  0  0  0  0
  -28.1880  -22.2640   19.1600 C   0  0  0  0  0  3  0  0  0  0  0  0
  -30.4950  -22.9950   19.4180 C   0  0  0  0  0  3  0  0  0  0  0  0
  -29.9680  -20.5940   19.4390 C   0  0  0  0  0  0  0  0  0  0  0  0
  -29.1410  -23.3020   19.2090 C   0  0  0  0  0  0  0  0  0  0  0  0
  -29.6580  -17.9380   19.7660 C   0  0  0  0  0  0  0  0  0  0  0  0
  -31.7850  -17.4830   20.7840 C   0  0  0  0  0  2  0  0  0  0  0  0
  -31.7750  -18.9390   20.2660 C   0  0  0  0  0  2  0  0  0  0  0  0
  -30.6160  -16.8040   20.0640 C   0  0  0  0  0  3  0  0  0  0  0  0
  -30.5210  -19.1560   19.3600 C   0  0  2  0  0  0  0  0  0  0  0  0
  -28.4260  -17.8710   19.7800 O   0  0  0  0  0  0  0  0  0  0  0  0
  -30.7440  -14.4210   20.4700 C   0  0  0  0  0  0  0  0  0  0  0  0
  -30.3270  -12.2980   19.3410 C   0  0  0  0  0  2  0  0  0  0  0  0
  -29.4100  -12.5620   18.1310 C   0  0  0  0  0  2  0  0  0  0  0  0
  -27.9330  -12.4510   18.5560 C   0  0  0  0  0  2  0  0  0  0  0  0
  -27.6060  -13.2820   19.8270 C   0  0  0  0  0  3  0  0  0  0  0  0
  -28.6610  -13.0700   20.9400 C   0  0  0  0  0  2  0  0  0  0  0  0
  -29.9910  -13.2990   20.3630 N   0  0  0  0  0  0  0  0  0  0  0  0
  -31.9150  -14.4680   20.0940 O   0  0  0  0  0  0  0  0  0  0  0  0
  -30.0860  -15.5720   20.6790 N   0  0  0  0  0  0  0  0  0  0  0  0
  -29.1080  -15.5410   20.9270 H   0  0  0  0  0  0  0  0  0  0  0  0
  -25.2110  -13.8940   20.5370 C   0  0  0  0  0  0  0  0  0  0  0  0
  -24.1400  -13.1230   20.9020 C   0  0  0  0  0  0  0  0  0  0  0  0
  -24.5960  -11.7700   20.8690 C   0  0  0  0  0  0  0  0  0  0  0  0
  -26.2530  -13.0100   20.3070 N   0  0  0  0  0  0  0  0  0  0  0  0
  -25.8870  -11.7280   20.5670 N   0  0  0  0  0  0  0  0  0  0  0  0
  -23.8650  -10.5090   21.0540 C   0  0  0  0  0  0  0  0  0  0  0  0
  -24.2860   -9.5430   21.9950 C   0  0  0  0  0  3  0  0  0  0  0  0
  -23.5570   -8.3470   22.1690 C   0  0  0  0  0  3  0  0  0  0  0  0
  -22.3920   -8.1070   21.4020 C   0  0  0  0  0  0  0  0  0  0  0  0
  -21.9890   -9.0620   20.4520 C   0  0  0  0  0  3  0  0  0  0  0  0
  -22.7180  -10.2500   20.2760 C   0  0  0  0  0  3  0  0  0  0  0  0
  -21.6370   -6.9620   21.4840 O   0  0  0  0  0  0  0  0  0  0  0  0
  -21.5690   -6.2250   22.6390 C   0  0  0  0  0  0  0  0  0  0  0  0
  -21.1100   -6.7830   23.8530 C   0  0  0  0  0  3  0  0  0  0  0  0
  -20.9910   -5.9720   24.9990 C   0  0  0  0  0  3  0  0  0  0  0  0
  -21.3190   -4.6040   24.9320 C   0  0  0  0  0  0  0  0  0  0  0  0
  -21.7710   -4.0460   23.7240 C   0  0  0  0  0  3  0  0  0  0  0  0
  -21.8930   -4.8540   22.5800 C   0  0  0  0  0  0  0  0  0  0  0  0
  -22.3060   -4.3060   21.4120 F   0  0  0  0  0  0  0  0  0  0  0  0
  -21.1960   -3.8240   26.0310 F   0  0  0  0  0  0  0  0  0  0  0  0
  -22.7430  -13.6030   21.1710 C   0  0  0  0  0  0  0  0  0  0  0  0
  -22.0090  -12.9030   22.0280 N   0  0  0  0  0  0  0  0  0  0  0  0
  -22.3120  -14.6350   20.6570 O   0  0  0  0  0  0  0  0  0  0  0  0
  -22.3700  -12.0710   22.4690 H   0  0  0  0  0  0  0  0  0  0  0  0
  -21.0680  -13.2060   22.2470 H   0  0  0  0  0  0  0  0  0  0  0  0
  -25.3830  -15.2650   20.3630 N   0  0  0  0  0  0  0  0  0  0  0  0
  -24.6210  -15.9240   20.4810 H   0  0  0  0  0  0  0  0  0  0  0  0
  -26.2360  -15.7030   20.0380 H   0  0  0  0  0  0  0  0  0  0  0  0
  -30.8500  -18.9440   17.9390 N   0  0  0  0  0  4  0  0  0  0  0  0
  -29.9950  -18.9610   17.4100 H   0  0  0  0  0  0  0  0  0  0  0  0
  -31.3060  -18.0660   17.7810 H   0  0  0  0  0  0  0  0  0  0  0  0
  -31.4380  -19.6840   17.6040 H   0  0  0  0  0  0  0  0  0  0  0  0
  -28.7330  -24.7510   19.0290 C   0  0  0  0  0  2  0  0  0  0  0  0
  -28.3880  -25.4100   20.3670 C   0  0  0  0  0  2  0  0  0  0  0  0
  -28.3980  -26.8240   20.2240 O   0  0  0  0  0  0  0  0  0  0  0  0
  -24.5480  -31.9170   23.2560 C   0  0  0  0  0  0  0  0  0  0  0  0
  -27.1940  -27.4830   20.2080 C   0  0  0  0  0  0  0  0  0  0  0  0
  -23.3380  -30.5040   21.6230 C   0  0  0  0  0  3  0  0  0  0  0  0
  -24.7900  -28.9600   20.2040 C   0  0  0  0  0  0  0  0  0  0  0  0
  -25.8590  -30.8700   21.4180 C   0  0  0  0  0  2  0  0  0  0  0  0
  -25.9420  -29.4980   20.7860 C   0  0  0  0  0  0  0  0  0  0  0  0
  -27.1470  -28.7690   20.7780 C   0  0  0  0  0  3  0  0  0  0  0  0
  -26.0240  -26.9430   19.6260 C   0  0  0  0  0  3  0  0  0  0  0  0
  -24.8240  -27.6800   19.6210 C   0  0  0  0  0  3  0  0  0  0  0  0
  -23.5430  -29.8130   20.2480 C   0  0  0  0  0  2  0  0  0  0  0  0
  -24.6010  -31.1080   22.1600 N   0  0  0  0  0  0  0  0  0  0  0  0
  -23.4640  -32.2130   23.7780 O   0  0  0  0  0  0  0  0  0  0  0  0
  -22.6880  -29.4880   22.5880 C   0  0  0  0  0  0  0  0  0  0  0  0
  -21.3650  -29.3030   22.4580 N   0  0  0  0  0  0  0  0  0  0  0  0
  -23.3720  -28.8660   23.4070 O   0  0  0  0  0  0  0  0  0  0  0  0
  -20.8760  -29.8570   21.7680 H   0  0  0  0  0  0  0  0  0  0  0  0
  -17.9870  -28.1290   22.9590 C   0  0  0  0  0  0  0  0  0  0  0  0
  -20.5460  -28.3700   23.2290 C   0  0  0  0  0  3  0  0  0  0  0  0
  -20.6400  -26.9390   22.6520 C   0  0  0  0  0  2  0  0  0  0  0  0
  -19.5360  -26.6250   21.6380 C   0  0  0  0  0  2  0  0  0  0  0  0
  -18.1550  -26.7780   22.2830 C   0  0  0  0  0  2  0  0  0  0  0  0
  -19.1110  -28.8830   23.3890 C   0  0  0  0  0  0  0  0  0  0  0  0
  -18.9000  -30.1490   23.9800 C   0  0  0  0  0  3  0  0  0  0  0  0
  -17.6000  -30.6590   24.1440 C   0  0  0  0  0  3  0  0  0  0  0  0
  -16.4900  -29.9010   23.7320 C   0  0  0  0  0  3  0  0  0  0  0  0
  -16.6850  -28.6380   23.1440 C   0  0  0  0  0  3  0  0  0  0  0  0
  -25.8390  -32.5360   23.8830 C   0  0  0  0  0  3  0  0  0  0  0  0
  -26.3500  -31.7650   25.1620 C   0  0  1  0  0  0  0  0  0  0  0  0
  -25.2520  -31.5340   26.2260 C   0  0  0  0  0  1  0  0  0  0  0  0
  -26.9280  -30.3850   24.7720 C   0  0  0  0  0  1  0  0  0  0  0  0
  -27.5030  -32.5550   25.8250 C   0  0  0  0  0  1  0  0  0  0  0  0
  -25.5440  -33.9370   24.2060 N   0  0  0  0  0  0  0  0  0  0  0  0
  -25.8820  -34.9810   23.4370 C   0  0  0  0  0  0  0  0  0  0  0  0
  -26.5530  -34.8640   22.4090 O   0  0  0  0  0  0  0  0  0  0  0  0
  -24.9510  -34.1030   25.0070 H   0  0  0  0  0  0  0  0  0  0  0  0
  -24.1710  -36.7810   23.0490 C   0  0  0  0  0  1  0  0  0  0  0  0
  -25.3980  -36.3740   23.8820 C   0  0  0  0  0  3  0  0  0  0  0  0
  -27.5260  -37.2480   24.7370 C   0  0  0  0  0  1  0  0  0  0  0  0
  -26.4400  -37.4180   23.7760 N   0  0  0  0  0  0  0  0  0  0  0  0
  -26.0380  -38.3420   23.9100 H   0  0  0  0  0  0  0  0  0  0  0  0
  1  5  1  0
  3  6  1  0
  3  1  2  0
  4  2  1  0
  5  2  2  0
  6  4  2  0
  7 12  2  0
  7 10  1  0
  9  8  1  0
 10 21  1  0
 10  8  1  0
 11 51  1  6
 11  5  1  0
 11  7  1  0
 11  9  1  0
 13 21  1  0
 14 19  1  0
 15 16  1  0
 15 14  1  0
 17 16  1  0
 17 26  1  0
 17 18  1  0
 19 13  1  0
 19 18  1  0
 20 13  2  0
 21 22  1  0
 23 24  2  0
 24 43  1  0
 25 24  1  0
 25 28  1  0
 26 23  1  0
 26 27  1  0
 27 25  2  0
 28 29  1  0
 29 30  2  0
 31 34  1  0
 31 30  1  0
 32 31  2  0
 33 32  1  0
 33 28  2  0
 34 35  1  0
 35 36  1  0
 36 37  2  0
 38 37  1  0
 38 42  1  0
 39 38  2  0
 40 35  2  0
 40 39  1  0
 41 40  1  0
 43 44  1  0
 44 47  1  0
 44 46  1  0
 45 43  2  0
 48 49  1  0
 48 23  1  0
 50 48  1  0
 52 51  1  0
 53 51  1  0
 54 51  1  0
 55  6  1  0
 55 56  1  0
 57 56  1  0
 58 69  2  0
 59 57  1  0
 59 64  1  0
 60 68  1  0
 60 70  1  0
 61 67  1  0
 61 63  1  0
 62 68  1  0
 63 62  1  0
 64 63  2  0
 65 59  2  0
 66 65  1  0
 66 61  2  0
 67 60  1  0
 68 58  1  0
 70 72  2  0
 71 70  1  0
 73 71  1  0
 74 83  2  0
 74 79  1  0
 75 71  1  0
 75 79  1  0
 76 75  1  0
 77 78  1  0
 77 76  1  0
 78 74  1  0
 79 80  2  0
 80 81  1  0
 82 81  2  0
 83 82  1  0
 84 58  1  0
 84 89  1  0
 84 85  1  0
 85 88  1  1
 85 86  1  0
 87 85  1  0
 89 92  1  0
 90 94  1  0
 90 89  1  0
 91 90  2  0
 94 93  1  0
 96 94  1  0
 96 97  1  0
 96 95  1  0
M  ISO  4  13 100  21 100  56 101  57 101
M  END
>  <TORSDO>  (57) 
F 20

>  <SCORE>  (57) 
-14.261

>  <name>  (57) 
56

>  <ligand_id>  (57) 
56

>  <original_smiles>  (57) 
[H]c1c([H])c([H])c2c(c1[H])C([H])([H])C([H])([H])C([H])([H])C2([H])N([H])C(=O)C1([H])N(C(=O)C([H])(N([H])C(=O)C([H])(N([H])C([H])([H])[H])C([H])([H])[H])C(C([H])([H])[H])(C([H])([H])[H])C([H])([H])[H])C([H])([H])c2c([H])c(OC([H])([H])C([H])([H])c3c([H])c([H])c(C4([N+]([H])([H])[H])C(=O)C([H])(N([H])C(=O)N5C([H])([H])C([H])([H])C([H])([H])C([H])(n6nc(-c7c([H])c([H])c(Oc8c([H])c([H])c(F)c([H])c8F)c([H])c7[H])c(C(=O)N([H])[H])c6N([H])[H])C5([H])[H])C([H])([H])C4([H])[H])c([H])c3[H])c([H])c([H])c2C1([H])[H]

>  <smiles>  (57) 
[H]c1c([H])c([H])c2c(c1[H])C([H])([H])C([H])([H])C([H])([H])C2([H])N([H])C(=O)C1([H])N(C(=O)C([H])(N([H])C(=O)C([H])(N([H])C([H])([H])[H])C([H])([H])[H])C(C([H])([H])[H])(C([H])([H])[H])C([H])([H])[H])C([H])([H])c2c([H])c(OC([H])([H])C([H])([H])c3c([H])c([H])c(C4([N+]([H])([H])[H])C(=O)C([H])(N([H])C(=O)N5C([H])([H])C([H])([H])C([H])([H])C([H])(n6nc(-c7c([H])c([H])c(Oc8c([H])c([H])c(F)c([H])c8F)c([H])c7[H])c(C(=O)N([H])[H])c6N([H])[H])C5([H])[H])C([H])([H])C4([H])[H])c([H])c3[H])c([H])c([H])c2C1([H])[H]

$$$$
57:0:0
     RDKit          3D

 90 98  0  0  1  0  0  0  0  0999 V2000
  -28.3360  -22.7210   19.0430 C   0  0  0  0  0  3  0  0  0  0  0  0
  -29.2200  -23.5030   21.1330 C   0  0  0  0  0  3  0  0  0  0  0  0
  -28.6320  -21.3670   19.3970 C   0  0  0  0  0  3  0  0  0  0  0  0
  -29.5210  -22.1510   21.4860 C   0  0  0  0  0  3  0  0  0  0  0  0
  -28.6370  -23.8320   19.8850 C   0  0  0  0  0  0  0  0  0  0  0  0
  -29.2600  -21.0440   20.6260 C   0  0  0  0  0  0  0  0  0  0  0  0
  -29.6700  -19.7230   21.0210 N   0  0  0  0  0  0  0  0  0  0  0  0
  -30.2390  -19.6700   21.8630 H   0  0  0  0  0  0  0  0  0  0  0  0
  -29.3700  -18.3960   20.3920 C   0  0  0  0  0  2  0  0  0  0  0  0
  -30.2660  -17.1970   20.9550 C   0  0  0  0  0  2  0  0  0  0  0  0
  -30.5820  -14.6700   20.4570 C   0  0  0  0  0  0  0  0  0  0  0  0
  -30.3730  -12.4370   19.3800 C   0  0  0  0  0  2  0  0  0  0  0  0
  -29.4370  -12.5620   18.1580 C   0  0  0  0  0  2  0  0  0  0  0  0
  -27.9640  -12.3870   18.5820 C   0  0  0  0  0  2  0  0  0  0  0  0
  -27.5930  -13.2420   19.8230 C   0  0  0  0  0  3  0  0  0  0  0  0
  -28.6480  -13.1040   20.9420 C   0  0  0  0  0  2  0  0  0  0  0  0
  -29.9520  -13.4570   20.3620 N   0  0  0  0  0  0  0  0  0  0  0  0
  -31.7570  -14.8050   20.1030 O   0  0  0  0  0  0  0  0  0  0  0  0
  -29.8190  -15.7660   20.7790 N   0  0  0  0  0  0  0  0  0  0  0  0
  -28.8570  -15.5710   21.0130 H   0  0  0  0  0  0  0  0  0  0  0  0
  -25.1900  -13.8030   20.5250 C   0  0  0  0  0  0  0  0  0  0  0  0
  -24.1330  -13.0140   20.8880 C   0  0  0  0  0  0  0  0  0  0  0  0
  -24.6170  -11.6690   20.8670 C   0  0  0  0  0  0  0  0  0  0  0  0
  -26.2500  -12.9390   20.3030 N   0  0  0  0  0  0  0  0  0  0  0  0
  -25.9090  -11.6500   20.5680 N   0  0  0  0  0  0  0  0  0  0  0  0
  -23.9100  -10.3970   21.0560 C   0  0  0  0  0  0  0  0  0  0  0  0
  -24.3550   -9.4350   21.9890 C   0  0  0  0  0  3  0  0  0  0  0  0
  -23.6450   -8.2270   22.1650 C   0  0  0  0  0  3  0  0  0  0  0  0
  -22.4790   -7.9730   21.4070 C   0  0  0  0  0  0  0  0  0  0  0  0
  -22.0530   -8.9240   20.4630 C   0  0  0  0  0  3  0  0  0  0  0  0
  -22.7620  -10.1220   20.2860 C   0  0  0  0  0  3  0  0  0  0  0  0
  -21.7380   -6.8180   21.4930 O   0  0  0  0  0  0  0  0  0  0  0  0
  -21.7010   -6.0710   22.6440 C   0  0  0  0  0  0  0  0  0  0  0  0
  -21.2630   -6.6150   23.8710 C   0  0  0  0  0  3  0  0  0  0  0  0
  -21.1760   -5.7940   25.0130 C   0  0  0  0  0  3  0  0  0  0  0  0
  -21.5150   -4.4310   24.9290 C   0  0  0  0  0  0  0  0  0  0  0  0
  -21.9480   -3.8880   23.7060 C   0  0  0  0  0  3  0  0  0  0  0  0
  -22.0370   -4.7040   22.5650 C   0  0  0  0  0  0  0  0  0  0  0  0
  -22.4340   -4.1710   21.3850 F   0  0  0  0  0  0  0  0  0  0  0  0
  -21.4230   -3.6400   26.0230 F   0  0  0  0  0  0  0  0  0  0  0  0
  -22.7270  -13.4690   21.1500 C   0  0  0  0  0  0  0  0  0  0  0  0
  -22.0070  -12.7610   22.0130 N   0  0  0  0  0  0  0  0  0  0  0  0
  -22.2790  -14.4870   20.6280 O   0  0  0  0  0  0  0  0  0  0  0  0
  -22.3830  -11.9310   22.4500 H   0  0  0  0  0  0  0  0  0  0  0  0
  -21.0670  -13.0510   22.2410 H   0  0  0  0  0  0  0  0  0  0  0  0
  -25.3340  -15.1750   20.3440 N   0  0  0  0  0  0  0  0  0  0  0  0
  -24.5580  -15.8190   20.4490 H   0  0  0  0  0  0  0  0  0  0  0  0
  -26.1710  -15.6230   19.9970 H   0  0  0  0  0  0  0  0  0  0  0  0
  -28.4860  -25.3050   19.3290 C   0  0  0  0  0  2  0  0  0  0  0  0
  -28.3380  -26.4840   20.2120 O   0  0  0  0  0  0  0  0  0  0  0  0
  -24.6110  -31.8800   23.2390 C   0  0  0  0  0  0  0  0  0  0  0  0
  -27.2090  -27.3160   20.1550 C   0  0  0  0  0  0  0  0  0  0  0  0
  -23.4030  -30.4770   21.6110 C   0  0  0  0  0  3  0  0  0  0  0  0
  -24.8470  -28.9350   20.1730 C   0  0  0  0  0  0  0  0  0  0  0  0
  -25.9460  -30.7900   21.4230 C   0  0  0  0  0  2  0  0  0  0  0  0
  -26.0190  -29.4150   20.7700 C   0  0  0  0  0  0  0  0  0  0  0  0
  -27.1990  -28.6130   20.7590 C   0  0  0  0  0  3  0  0  0  0  0  0
  -26.0030  -26.8810   19.5580 C   0  0  0  0  0  3  0  0  0  0  0  0
  -24.8430  -27.6770   19.5570 C   0  0  0  0  0  3  0  0  0  0  0  0
  -23.6130  -29.8110   20.2270 C   0  0  0  0  0  2  0  0  0  0  0  0
  -24.6740  -31.0630   22.1480 N   0  0  0  0  0  0  0  0  0  0  0  0
  -23.5240  -32.1790   23.7510 O   0  0  0  0  0  0  0  0  0  0  0  0
  -22.7430  -29.4580   22.5710 C   0  0  0  0  0  0  0  0  0  0  0  0
  -21.4150  -29.2820   22.4520 N   0  0  0  0  0  0  0  0  0  0  0  0
  -23.4240  -28.8300   23.3850 O   0  0  0  0  0  0  0  0  0  0  0  0
  -20.9220  -29.8520   21.7800 H   0  0  0  0  0  0  0  0  0  0  0  0
  -18.0390  -28.0800   22.9530 C   0  0  0  0  0  0  0  0  0  0  0  0
  -20.5980  -28.3400   23.2210 C   0  0  0  0  0  3  0  0  0  0  0  0
  -20.7000  -26.9080   22.6450 C   0  0  0  0  0  2  0  0  0  0  0  0
  -19.5960  -26.5850   21.6330 C   0  0  0  0  0  2  0  0  0  0  0  0
  -18.2140  -26.7300   22.2780 C   0  0  0  0  0  2  0  0  0  0  0  0
  -19.1580  -28.8430   23.3810 C   0  0  0  0  0  0  0  0  0  0  0  0
  -18.9380  -30.1060   23.9710 C   0  0  0  0  0  3  0  0  0  0  0  0
  -17.6330  -30.6060   24.1410 C   0  0  0  0  0  3  0  0  0  0  0  0
  -16.5290  -29.8390   23.7290 C   0  0  0  0  0  3  0  0  0  0  0  0
  -16.7320  -28.5790   23.1400 C   0  0  0  0  0  3  0  0  0  0  0  0
  -25.8950  -32.5060   23.8680 C   0  0  0  0  0  3  0  0  0  0  0  0
  -26.4050  -31.7420   25.1530 C   0  0  1  0  0  0  0  0  0  0  0  0
  -25.3060  -31.5200   26.2190 C   0  0  0  0  0  1  0  0  0  0  0  0
  -26.9840  -30.3590   24.7740 C   0  0  0  0  0  1  0  0  0  0  0  0
  -27.5560  -32.5390   25.8150 C   0  0  0  0  0  1  0  0  0  0  0  0
  -25.5930  -33.9080   24.1910 N   0  0  0  0  0  0  0  0  0  0  0  0
  -25.9270  -34.9550   23.4260 C   0  0  0  0  0  0  0  0  0  0  0  0
  -26.5920  -34.8430   22.3930 O   0  0  0  0  0  0  0  0  0  0  0  0
  -25.0110  -34.0700   25.0010 H   0  0  0  0  0  0  0  0  0  0  0  0
  -24.2070  -36.7580   23.0660 C   0  0  0  0  0  1  0  0  0  0  0  0
  -25.4460  -36.3480   23.8780 C   0  0  0  0  0  3  0  0  0  0  0  0
  -27.5850  -37.2240   24.7090 C   0  0  0  0  0  1  0  0  0  0  0  0
  -26.4830  -37.3990   23.7680 N   0  0  0  0  0  0  0  0  0  0  0  0
  -26.0770  -38.3180   23.9230 H   0  0  0  0  0  0  0  0  0  0  0  0
  1  3  2  0
  1  5  1  0
  2  4  1  0
  3  6  1  0
  5  2  2  0
  6  7  1  0
  6  4  2  0
  7  8  1  0
  9 10  1  0
  9  7  1  0
 11 19  1  0
 12 17  1  0
 13 14  1  0
 13 12  1  0
 15 14  1  0
 15 24  1  0
 15 16  1  0
 17 11  1  0
 17 16  1  0
 18 11  2  0
 19 10  1  0
 19 20  1  0
 21 22  2  0
 22 41  1  0
 23 22  1  0
 23 26  1  0
 24 21  1  0
 24 25  1  0
 25 23  2  0
 26 27  1  0
 27 28  2  0
 29 32  1  0
 29 28  1  0
 30 29  2  0
 31 30  1  0
 31 26  2  0
 32 33  1  0
 33 34  1  0
 34 35  2  0
 36 35  1  0
 36 40  1  0
 37 36  2  0
 38 33  2  0
 38 37  1  0
 39 38  1  0
 41 42  1  0
 42 45  1  0
 42 44  1  0
 43 41  2  0
 46 47  1  0
 46 21  1  0
 48 46  1  0
 49  5  1  0
 49 50  1  0
 51 62  2  0
 52 50  1  0
 52 57  1  0
 53 61  1  0
 53 63  1  0
 54 60  1  0
 54 56  1  0
 55 61  1  0
 56 55  1  0
 57 56  2  0
 58 52  2  0
 59 58  1  0
 59 54  2  0
 60 53  1  0
 61 51  1  0
 63 65  2  0
 64 63  1  0
 66 64  1  0
 67 76  2  0
 67 72  1  0
 68 64  1  0
 68 72  1  0
 69 68  1  0
 70 71  1  0
 70 69  1  0
 71 67  1  0
 72 73  2  0
 73 74  1  0
 75 74  2  0
 76 75  1  0
 77 51  1  0
 77 82  1  0
 77 78  1  0
 78 81  1  1
 78 79  1  0
 80 78  1  0
 82 85  1  0
 83 87  1  0
 83 82  1  0
 84 83  2  0
 87 86  1  0
 89 87  1  0
 89 90  1  0
 89 88  1  0
M  ISO  4  11 100  19 100  49 101  50 101
M  END
>  <TORSDO>  (58) 
F 20

>  <SCORE>  (58) 
-13.891

>  <name>  (58) 
57

>  <ligand_id>  (58) 
57

>  <original_smiles>  (58) 
[H]c1c([H])c([H])c2c(c1[H])C([H])([H])C([H])([H])C([H])([H])C2([H])N([H])C(=O)C1([H])N(C(=O)C([H])(N([H])C(=O)C([H])(N([H])C([H])([H])[H])C([H])([H])[H])C(C([H])([H])[H])(C([H])([H])[H])C([H])([H])[H])C([H])([H])c2c([H])c(OC([H])([H])c3c([H])c([H])c(N([H])C([H])([H])C([H])([H])N([H])C(=O)N4C([H])([H])C([H])([H])C([H])([H])C([H])(n5nc(-c6c([H])c([H])c(Oc7c([H])c([H])c(F)c([H])c7F)c([H])c6[H])c(C(=O)N([H])[H])c5N([H])[H])C4([H])[H])c([H])c3[H])c([H])c([H])c2C1([H])[H]

>  <smiles>  (58) 
[H]c1c([H])c([H])c2c(c1[H])C([H])([H])C([H])([H])C([H])([H])C2([H])N([H])C(=O)C1([H])N(C(=O)C([H])(N([H])C(=O)C([H])(N([H])C([H])([H])[H])C([H])([H])[H])C(C([H])([H])[H])(C([H])([H])[H])C([H])([H])[H])C([H])([H])c2c([H])c(OC([H])([H])c3c([H])c([H])c(N([H])C([H])([H])C([H])([H])N([H])C(=O)N4C([H])([H])C([H])([H])C([H])([H])C([H])(n5nc(-c6c([H])c([H])c(Oc7c([H])c([H])c(F)c([H])c7F)c([H])c6[H])c(C(=O)N([H])[H])c5N([H])[H])C4([H])[H])c([H])c3[H])c([H])c([H])c2C1([H])[H]

$$$$
58:0:0
     RDKit          3D

 91100  0  0  1  0  0  0  0  0999 V2000
  -27.9030  -22.6570   20.4400 C   0  0  0  0  0  2  0  0  0  0  0  0
  -30.1420  -23.5220   20.8760 C   0  0  0  0  0  2  0  0  0  0  0  0
  -28.4490  -21.4020   19.6990 C   0  0  0  0  0  2  0  0  0  0  0  0
  -30.7900  -22.2590   20.2180 C   0  0  0  0  0  2  0  0  0  0  0  0
  -30.4980  -20.1380   18.8620 C   0  0  0  0  0  2  0  0  0  0  0  0
  -30.0090  -18.6920   19.0480 C   0  0  0  0  0  2  0  0  0  0  0  0
  -30.0400  -19.8430   21.1360 C   0  0  0  0  0  2  0  0  0  0  0  0
  -28.7810  -23.9270   20.2600 C   0  0  0  0  0  3  0  0  0  0  0  0
  -29.9180  -20.9620   20.0290 C   0  0  2  0  0  0  0  0  0  0  0  0
  -29.8260  -18.4880   20.5020 N   0  0  2  0  0  4  0  0  0  0  0  0
  -28.8460  -18.2980   20.6380 H   0  0  0  0  0  0  0  0  0  0  0  0
  -28.1230  -25.2330   20.8790 C   0  0  0  0  0  2  0  0  0  0  0  0
  -28.3340  -26.5400   20.2370 O   0  0  0  0  0  0  0  0  0  0  0  0
  -24.6050  -31.8970   23.2420 C   0  0  0  0  0  0  0  0  0  0  0  0
  -27.2170  -27.3740   20.1920 C   0  0  0  0  0  0  0  0  0  0  0  0
  -23.3940  -30.4880   21.6150 C   0  0  0  0  0  3  0  0  0  0  0  0
  -24.8440  -28.9460   20.1780 C   0  0  0  0  0  0  0  0  0  0  0  0
  -25.9290  -30.8230   21.4200 C   0  0  0  0  0  2  0  0  0  0  0  0
  -26.0090  -29.4500   20.7690 C   0  0  0  0  0  0  0  0  0  0  0  0
  -27.2030  -28.6770   20.7650 C   0  0  0  0  0  3  0  0  0  0  0  0
  -26.0390  -26.9150   19.5630 C   0  0  0  0  0  3  0  0  0  0  0  0
  -24.8590  -27.6840   19.5600 C   0  0  0  0  0  3  0  0  0  0  0  0
  -23.5980  -29.8070   20.2350 C   0  0  0  0  0  2  0  0  0  0  0  0
  -24.6610  -31.0810   22.1510 N   0  0  0  0  0  0  0  0  0  0  0  0
  -23.5210  -32.1970   23.7610 O   0  0  0  0  0  0  0  0  0  0  0  0
  -22.7390  -29.4710   22.5810 C   0  0  0  0  0  0  0  0  0  0  0  0
  -21.4140  -29.2890   22.4580 N   0  0  0  0  0  0  0  0  0  0  0  0
  -23.4230  -28.8500   23.3980 O   0  0  0  0  0  0  0  0  0  0  0  0
  -20.9230  -29.8400   21.7670 H   0  0  0  0  0  0  0  0  0  0  0  0
  -18.0420  -28.0870   22.9640 C   0  0  0  0  0  0  0  0  0  0  0  0
  -20.5990  -28.3520   23.2320 C   0  0  0  0  0  3  0  0  0  0  0  0
  -20.7040  -26.9200   22.6570 C   0  0  0  0  0  2  0  0  0  0  0  0
  -19.6020  -26.5940   21.6440 C   0  0  0  0  0  2  0  0  0  0  0  0
  -18.2200  -26.7370   22.2900 C   0  0  0  0  0  2  0  0  0  0  0  0
  -19.1580  -28.8520   23.3920 C   0  0  0  0  0  0  0  0  0  0  0  0
  -18.9370  -30.1160   23.9810 C   0  0  0  0  0  3  0  0  0  0  0  0
  -17.6330  -30.6160   24.1450 C   0  0  0  0  0  3  0  0  0  0  0  0
  -16.5300  -29.8480   23.7360 C   0  0  0  0  0  3  0  0  0  0  0  0
  -16.7350  -28.5840   23.1520 C   0  0  0  0  0  3  0  0  0  0  0  0
  -25.8940  -32.5190   23.8660 C   0  0  0  0  0  3  0  0  0  0  0  0
  -26.4140  -31.7420   25.1390 C   0  0  1  0  0  0  0  0  0  0  0  0
  -25.3230  -31.5020   26.2070 C   0  0  0  0  0  1  0  0  0  0  0  0
  -26.9940  -30.3630   24.7450 C   0  0  0  0  0  1  0  0  0  0  0  0
  -27.5710  -32.5300   25.7980 C   0  0  0  0  0  1  0  0  0  0  0  0
  -25.5930  -33.9170   24.2020 N   0  0  0  0  0  0  0  0  0  0  0  0
  -25.9170  -34.9690   23.4380 C   0  0  0  0  0  0  0  0  0  0  0  0
  -26.5750  -34.8640   22.4000 O   0  0  0  0  0  0  0  0  0  0  0  0
  -25.0060  -34.0710   25.0090 H   0  0  0  0  0  0  0  0  0  0  0  0
  -24.1850  -36.7610   23.0960 C   0  0  0  0  0  1  0  0  0  0  0  0
  -25.4320  -36.3580   23.8970 C   0  0  0  0  0  3  0  0  0  0  0  0
  -27.5770  -37.2420   24.7030 C   0  0  0  0  0  1  0  0  0  0  0  0
  -26.4630  -37.4110   23.7730 N   0  0  0  0  0  0  0  0  0  0  0  0
  -26.0590  -38.3300   23.9260 H   0  0  0  0  0  0  0  0  0  0  0  0
  -30.5780  -17.2950   21.0650 C   0  0  0  0  0  2  0  0  0  0  0  0
  -29.8420  -15.8870   20.9730 C   0  0  0  0  0  2  0  0  0  0  0  0
  -30.6250  -14.6170   20.4640 C   0  0  0  0  0  0  0  0  0  0  0  0
  -30.3810  -12.4170   19.3260 C   0  0  0  0  0  2  0  0  0  0  0  0
  -29.4330  -12.5840   18.1150 C   0  0  0  0  0  2  0  0  0  0  0  0
  -27.9610  -12.4270   18.5430 C   0  0  0  0  0  2  0  0  0  0  0  0
  -27.6100  -13.2700   19.7950 C   0  0  0  0  0  3  0  0  0  0  0  0
  -28.6670  -13.0810   20.9040 C   0  0  0  0  0  2  0  0  0  0  0  0
  -29.9860  -13.4100   20.3430 N   0  0  0  0  0  0  0  0  0  0  0  0
  -31.7720  -14.7670   20.0330 O   0  0  0  0  0  0  0  0  0  0  0  0
  -25.2150  -13.8800   20.5030 C   0  0  0  0  0  0  0  0  0  0  0  0
  -24.1440  -13.1100   20.8730 C   0  0  0  0  0  0  0  0  0  0  0  0
  -24.6030  -11.7580   20.8490 C   0  0  0  0  0  0  0  0  0  0  0  0
  -26.2570  -12.9960   20.2750 N   0  0  0  0  0  0  0  0  0  0  0  0
  -25.8930  -11.7150   20.5430 N   0  0  0  0  0  0  0  0  0  0  0  0
  -23.8740  -10.4990   21.0440 C   0  0  0  0  0  0  0  0  0  0  0  0
  -24.3110   -9.5290   21.9740 C   0  0  0  0  0  3  0  0  0  0  0  0
  -23.5850   -8.3330   22.1560 C   0  0  0  0  0  3  0  0  0  0  0  0
  -22.4070   -8.0950   21.4060 C   0  0  0  0  0  0  0  0  0  0  0  0
  -21.9900   -9.0520   20.4640 C   0  0  0  0  0  3  0  0  0  0  0  0
  -22.7160  -10.2420   20.2820 C   0  0  0  0  0  3  0  0  0  0  0  0
  -21.6540   -6.9490   21.4970 O   0  0  0  0  0  0  0  0  0  0  0  0
  -21.6200   -6.1990   22.6450 C   0  0  0  0  0  0  0  0  0  0  0  0
  -21.2180   -6.7480   23.8820 C   0  0  0  0  0  3  0  0  0  0  0  0
  -21.1310   -5.9260   25.0230 C   0  0  0  0  0  3  0  0  0  0  0  0
  -21.4360   -4.5540   24.9270 C   0  0  0  0  0  0  0  0  0  0  0  0
  -21.8300   -4.0030   23.6940 C   0  0  0  0  0  3  0  0  0  0  0  0
  -21.9190   -4.8240   22.5560 C   0  0  0  0  0  0  0  0  0  0  0  0
  -22.2810   -4.2850   21.3660 F   0  0  0  0  0  0  0  0  0  0  0  0
  -21.3450   -3.7610   26.0190 F   0  0  0  0  0  0  0  0  0  0  0  0
  -22.7460  -13.5910   21.1380 C   0  0  0  0  0  0  0  0  0  0  0  0
  -22.0150  -12.8970   22.0040 N   0  0  0  0  0  0  0  0  0  0  0  0
  -22.3110  -14.6150   20.6130 O   0  0  0  0  0  0  0  0  0  0  0  0
  -22.3800  -12.0660   22.4480 H   0  0  0  0  0  0  0  0  0  0  0  0
  -21.0780  -13.1990   22.2250 H   0  0  0  0  0  0  0  0  0  0  0  0
  -25.3890  -15.2480   20.3190 N   0  0  0  0  0  0  0  0  0  0  0  0
  -24.6310  -15.9140   20.4220 H   0  0  0  0  0  0  0  0  0  0  0  0
  -26.2370  -15.6680   19.9630 H   0  0  0  0  0  0  0  0  0  0  0  0
  9  3  1  6
  3  1  1  0
  4  2  1  0
  5  6  1  0
  6 10  1  0
  8  1  1  0
  8  2  1  0
  8 12  1  0
  9  5  1  0
  9  4  1  0
  9  7  1  0
 10 11  1  6
 10 54  1  0
 10  7  1  0
 13 12  1  0
 14 25  2  0
 15 13  1  0
 15 20  1  0
 16 24  1  0
 16 26  1  0
 17 23  1  0
 17 19  1  0
 18 24  1  0
 19 18  1  0
 20 19  2  0
 21 15  2  0
 22 21  1  0
 22 17  2  0
 23 16  1  0
 24 14  1  0
 26 28  2  0
 27 26  1  0
 29 27  1  0
 30 39  2  0
 30 35  1  0
 31 27  1  0
 31 35  1  0
 32 31  1  0
 33 34  1  0
 33 32  1  0
 34 30  1  0
 35 36  2  0
 36 37  1  0
 38 37  2  0
 39 38  1  0
 40 14  1  0
 40 45  1  0
 40 41  1  0
 41 44  1  1
 41 42  1  0
 43 41  1  0
 45 48  1  0
 46 50  1  0
 46 45  1  0
 47 46  2  0
 50 49  1  0
 52 50  1  0
 52 53  1  0
 52 51  1  0
 55 54  1  0
 56 55  1  0
 57 62  1  0
 58 59  1  0
 58 57  1  0
 60 59  1  0
 60 67  1  0
 60 61  1  0
 62 56  1  0
 62 61  1  0
 63 56  2  0
 64 65  2  0
 65 84  1  0
 66 65  1  0
 66 69  1  0
 67 64  1  0
 67 68  1  0
 68 66  2  0
 69 70  1  0
 70 71  2  0
 72 75  1  0
 72 71  1  0
 73 72  2  0
 74 73  1  0
 74 69  2  0
 75 76  1  0
 76 77  1  0
 77 78  2  0
 79 78  1  0
 79 83  1  0
 80 79  2  0
 81 76  2  0
 81 80  1  0
 82 81  1  0
 84 85  1  0
 85 88  1  0
 85 87  1  0
 86 84  2  0
 89 90  1  0
 89 64  1  0
 91 89  1  0
M  ISO  4  12 101  13 101  55 100  56 100
M  END
>  <TORSDO>  (59) 
F 19

>  <SCORE>  (59) 
-14.343

>  <name>  (59) 
58

>  <ligand_id>  (59) 
58

>  <original_smiles>  (59) 
[H]c1c([H])c([H])c2c(c1[H])C([H])([H])C([H])([H])C([H])([H])C2([H])N([H])C(=O)C1([H])N(C(=O)C([H])(N([H])C(=O)C([H])(N([H])C([H])([H])[H])C([H])([H])[H])C(C([H])([H])[H])(C([H])([H])[H])C([H])([H])[H])C([H])([H])c2c([H])c(OC([H])([H])C3([H])C([H])([H])C([H])([H])C4(C([H])([H])C3([H])[H])C([H])([H])C([H])([H])[N+]([H])(C([H])([H])C([H])([H])C(=O)N3C([H])([H])C([H])([H])C([H])([H])C([H])(n5nc(-c6c([H])c([H])c(Oc7c([H])c([H])c(F)c([H])c7F)c([H])c6[H])c(C(=O)N([H])[H])c5N([H])[H])C3([H])[H])C4([H])[H])c([H])c([H])c2C1([H])[H]

>  <smiles>  (59) 
[H]c1c([H])c([H])c2c(c1[H])C([H])([H])C([H])([H])C([H])([H])C2([H])N([H])C(=O)C1([H])N(C(=O)C([H])(N([H])C(=O)C([H])(N([H])C([H])([H])[H])C([H])([H])[H])C(C([H])([H])[H])(C([H])([H])[H])C([H])([H])[H])C([H])([H])c2c([H])c(OC([H])([H])C3([H])C([H])([H])C([H])([H])C4(C([H])([H])C3([H])[H])C([H])([H])C([H])([H])[N+]([H])(C([H])([H])C([H])([H])C(=O)N3C([H])([H])C([H])([H])C([H])([H])C([H])(n5nc(-c6c([H])c([H])c(Oc7c([H])c([H])c(F)c([H])c7F)c([H])c6[H])c(C(=O)N([H])[H])c5N([H])[H])C3([H])[H])C4([H])[H])c([H])c([H])c2C1([H])[H]

$$$$
59:0:0
     RDKit          3D

 92101  0  0  1  0  0  0  0  0999 V2000
  -31.7210  -21.4320   20.0200 C   0  0  0  0  0  2  0  0  0  0  0  0
  -29.3050  -24.5730   21.2530 C   0  0  0  0  0  2  0  0  0  0  0  0
  -28.4100  -24.5110   18.9320 C   0  0  0  0  0  2  0  0  0  0  0  0
  -30.7110  -22.3680   19.3470 C   0  0  0  0  0  2  0  0  0  0  0  0
  -29.2130  -23.0160   21.3430 C   0  0  0  0  0  2  0  0  0  0  0  0
  -28.2720  -22.9680   19.0310 C   0  0  0  0  0  2  0  0  0  0  0  0
  -31.2560  -19.9710   19.9400 C   0  0  0  0  0  2  0  0  0  0  0  0
  -28.9030  -20.7350   20.0900 C   0  0  0  0  0  2  0  0  0  0  0  0
  -28.2470  -25.1880   20.3070 C   0  0  0  0  0  3  0  0  0  0  0  0
  -29.2990  -22.2660   19.9750 C   0  0  1  0  0  0  0  0  0  0  0  0
  -29.9450  -19.7790   20.6110 N   0  0  1  0  0  4  0  0  0  0  0  0
  -30.0970  -20.0240   21.5780 H   0  0  0  0  0  0  0  0  0  0  0  0
  -28.3690  -26.6350   20.2390 O   0  0  0  0  0  0  0  0  0  0  0  0
  -24.6000  -31.9130   23.2590 C   0  0  0  0  0  0  0  0  0  0  0  0
  -27.2070  -27.4000   20.2050 C   0  0  0  0  0  0  0  0  0  0  0  0
  -23.3860  -30.5070   21.6320 C   0  0  0  0  0  3  0  0  0  0  0  0
  -24.8260  -28.9550   20.2080 C   0  0  0  0  0  0  0  0  0  0  0  0
  -25.9190  -30.8370   21.4350 C   0  0  0  0  0  2  0  0  0  0  0  0
  -25.9930  -29.4630   20.7930 C   0  0  0  0  0  0  0  0  0  0  0  0
  -27.1870  -28.6970   20.7800 C   0  0  0  0  0  3  0  0  0  0  0  0
  -26.0170  -26.9190   19.6110 C   0  0  0  0  0  3  0  0  0  0  0  0
  -24.8370  -27.6840   19.6120 C   0  0  0  0  0  3  0  0  0  0  0  0
  -23.5900  -29.8240   20.2550 C   0  0  0  0  0  2  0  0  0  0  0  0
  -24.6540  -31.0980   22.1680 N   0  0  0  0  0  0  0  0  0  0  0  0
  -23.5160  -32.2180   23.7750 O   0  0  0  0  0  0  0  0  0  0  0  0
  -22.7270  -29.4930   22.5960 C   0  0  0  0  0  0  0  0  0  0  0  0
  -21.4030  -29.3080   22.4620 N   0  0  0  0  0  0  0  0  0  0  0  0
  -23.4040  -28.8750   23.4210 O   0  0  0  0  0  0  0  0  0  0  0  0
  -20.9170  -29.8580   21.7680 H   0  0  0  0  0  0  0  0  0  0  0  0
  -18.0280  -28.1030   22.9370 C   0  0  0  0  0  0  0  0  0  0  0  0
  -20.5810  -28.3750   23.2340 C   0  0  0  0  0  3  0  0  0  0  0  0
  -20.6960  -26.9380   22.6740 C   0  0  0  0  0  2  0  0  0  0  0  0
  -19.6070  -26.6010   21.6500 C   0  0  0  0  0  2  0  0  0  0  0  0
  -18.2170  -26.7480   22.2770 C   0  0  0  0  0  2  0  0  0  0  0  0
  -19.1390  -28.8750   23.3710 C   0  0  0  0  0  0  0  0  0  0  0  0
  -18.9090  -30.1430   23.9470 C   0  0  0  0  0  3  0  0  0  0  0  0
  -17.6010  -30.6420   24.0930 C   0  0  0  0  0  3  0  0  0  0  0  0
  -16.5040  -29.8680   23.6740 C   0  0  0  0  0  3  0  0  0  0  0  0
  -16.7180  -28.6010   23.1020 C   0  0  0  0  0  3  0  0  0  0  0  0
  -25.8900  -32.5290   23.8860 C   0  0  0  0  0  3  0  0  0  0  0  0
  -26.4070  -31.7500   25.1570 C   0  0  1  0  0  0  0  0  0  0  0  0
  -25.3140  -31.5140   26.2250 C   0  0  0  0  0  1  0  0  0  0  0  0
  -26.9840  -30.3720   24.7580 C   0  0  0  0  0  1  0  0  0  0  0  0
  -27.5620  -32.5370   25.8210 C   0  0  0  0  0  1  0  0  0  0  0  0
  -25.5920  -33.9280   24.2220 N   0  0  0  0  0  0  0  0  0  0  0  0
  -25.9080  -34.9790   23.4540 C   0  0  0  0  0  0  0  0  0  0  0  0
  -26.5580  -34.8730   22.4090 O   0  0  0  0  0  0  0  0  0  0  0  0
  -25.0140  -34.0850   25.0350 H   0  0  0  0  0  0  0  0  0  0  0  0
  -24.1650  -36.7620   23.1410 C   0  0  0  0  0  1  0  0  0  0  0  0
  -25.4310  -36.3670   23.9190 C   0  0  0  0  0  3  0  0  0  0  0  0
  -27.5850  -37.2610   24.6830 C   0  0  0  0  0  1  0  0  0  0  0  0
  -26.4560  -37.4220   23.7700 N   0  0  0  0  0  0  0  0  0  0  0  0
  -26.0520  -38.3420   23.9250 H   0  0  0  0  0  0  0  0  0  0  0  0
  -29.4560  -18.3490   20.6130 C   0  0  0  0  0  3  0  0  0  0  0  0
  -30.5100  -17.2070   20.8460 C   0  0  0  0  0  3  0  0  0  0  0  0
  -29.8990  -15.7840   21.1190 C   0  0  0  0  0  2  0  0  0  0  0  0
  -30.6480  -14.5450   20.5320 C   0  0  0  0  0  0  0  0  0  0  0  0
  -30.3760  -12.3790   19.3590 C   0  0  0  0  0  2  0  0  0  0  0  0
  -29.4470  -12.5910   18.1440 C   0  0  0  0  0  2  0  0  0  0  0  0
  -27.9670  -12.4490   18.5520 C   0  0  0  0  0  2  0  0  0  0  0  0
  -27.6160  -13.2800   19.8150 C   0  0  0  0  0  3  0  0  0  0  0  0
  -28.6600  -13.0580   20.9330 C   0  0  0  0  0  2  0  0  0  0  0  0
  -29.9910  -13.3570   20.3880 N   0  0  0  0  0  0  0  0  0  0  0  0
  -31.7900  -14.7040   20.0900 O   0  0  0  0  0  0  0  0  0  0  0  0
  -25.2110  -13.9020   20.4850 C   0  0  0  0  0  0  0  0  0  0  0  0
  -24.1350  -13.1370   20.8480 C   0  0  0  0  0  0  0  0  0  0  0  0
  -24.5930  -11.7840   20.8400 C   0  0  0  0  0  0  0  0  0  0  0  0
  -26.2570  -13.0140   20.2790 N   0  0  0  0  0  0  0  0  0  0  0  0
  -25.8870  -11.7370   20.5510 N   0  0  0  0  0  0  0  0  0  0  0  0
  -23.8600  -10.5250   21.0340 C   0  0  0  0  0  0  0  0  0  0  0  0
  -24.2860   -9.5600   21.9720 C   0  0  0  0  0  3  0  0  0  0  0  0
  -23.5550   -8.3670   22.1530 C   0  0  0  0  0  3  0  0  0  0  0  0
  -22.3840   -8.1310   21.3950 C   0  0  0  0  0  0  0  0  0  0  0  0
  -21.9780   -9.0840   20.4440 C   0  0  0  0  0  3  0  0  0  0  0  0
  -22.7100  -10.2690   20.2620 C   0  0  0  0  0  3  0  0  0  0  0  0
  -21.6240   -6.9890   21.4830 O   0  0  0  0  0  0  0  0  0  0  0  0
  -21.5760   -6.2460   22.6350 C   0  0  0  0  0  0  0  0  0  0  0  0
  -21.1550   -6.8000   23.8630 C   0  0  0  0  0  3  0  0  0  0  0  0
  -21.0540   -5.9830   25.0070 C   0  0  0  0  0  3  0  0  0  0  0  0
  -21.3630   -4.6120   24.9230 C   0  0  0  0  0  0  0  0  0  0  0  0
  -21.7760   -4.0560   23.7000 C   0  0  0  0  0  3  0  0  0  0  0  0
  -21.8790   -4.8700   22.5580 C   0  0  0  0  0  0  0  0  0  0  0  0
  -22.2570   -4.3260   21.3770 F   0  0  0  0  0  0  0  0  0  0  0  0
  -21.2580   -3.8250   26.0190 F   0  0  0  0  0  0  0  0  0  0  0  0
  -22.7350  -13.6220   21.0930 C   0  0  0  0  0  0  0  0  0  0  0  0
  -21.9920  -12.9370   21.9560 N   0  0  0  0  0  0  0  0  0  0  0  0
  -22.3060  -14.6410   20.5540 O   0  0  0  0  0  0  0  0  0  0  0  0
  -22.3510  -12.1130   22.4130 H   0  0  0  0  0  0  0  0  0  0  0  0
  -21.0520  -13.2420   22.1620 H   0  0  0  0  0  0  0  0  0  0  0  0
  -25.3830  -15.2700   20.2930 N   0  0  0  0  0  0  0  0  0  0  0  0
  -24.6190  -15.9290   20.3820 H   0  0  0  0  0  0  0  0  0  0  0  0
  -26.2420  -15.6970   19.9710 H   0  0  0  0  0  0  0  0  0  0  0  0
  2  5  1  0
  3  6  1  0
  3  9  1  0
 10  4  1  6
  4  1  1  0
  7  1  1  0
  7 11  1  0
  8 11  1  0
  9 13  1  0
  9  2  1  0
 10  6  1  0
 10  8  1  0
 10  5  1  0
 11 54  1  0
 11 12  1  1
 14 25  2  0
 15 13  1  0
 15 20  1  0
 16 24  1  0
 16 26  1  0
 17 23  1  0
 17 19  1  0
 18 24  1  0
 19 18  1  0
 20 19  2  0
 21 22  1  0
 21 15  2  0
 22 17  2  0
 23 16  1  0
 24 14  1  0
 26 28  2  0
 27 26  1  0
 29 27  1  0
 30 39  2  0
 30 35  1  0
 31 27  1  0
 31 35  1  0
 32 31  1  0
 33 34  1  0
 33 32  1  0
 34 30  1  0
 35 36  2  0
 36 37  1  0
 38 37  2  0
 39 38  1  0
 40 14  1  0
 40 45  1  0
 40 41  1  0
 41 44  1  1
 41 42  1  0
 43 41  1  0
 45 48  1  0
 46 50  1  0
 46 45  1  0
 47 46  2  0
 50 49  1  0
 52 50  1  0
 52 53  1  0
 52 51  1  0
 54 55  2  0
 55 56  1  0
 57 56  1  0
 58 63  1  0
 59 60  1  0
 59 58  1  0
 61 60  1  0
 61 68  1  0
 61 62  1  0
 63 57  1  0
 63 62  1  0
 64 57  2  0
 65 66  2  0
 66 85  1  0
 67 66  1  0
 67 70  1  0
 68 65  1  0
 68 69  1  0
 69 67  2  0
 70 71  1  0
 71 72  2  0
 73 76  1  0
 73 72  1  0
 74 73  2  0
 75 74  1  0
 75 70  2  0
 76 77  1  0
 77 78  1  0
 78 79  2  0
 80 79  1  0
 80 84  1  0
 81 80  2  0
 82 77  2  0
 82 81  1  0
 83 82  1  0
 85 86  1  0
 86 89  1  0
 86 88  1  0
 87 85  2  0
 90 91  1  0
 90 65  1  0
 92 90  1  0
M  ISO  4   9 101  13 101  56 100  57 100
M  END
>  <TORSDO>  (60) 
F 19

>  <SCORE>  (60) 
-14.371

>  <name>  (60) 
59

>  <ligand_id>  (60) 
59

>  <original_smiles>  (60) 
[H]c1c([H])c([H])c2c(c1[H])C([H])([H])C([H])([H])C([H])([H])C2([H])N([H])C(=O)C1([H])N(C(=O)C([H])(N([H])C(=O)C([H])(N([H])C([H])([H])[H])C([H])([H])[H])C(C([H])([H])[H])(C([H])([H])[H])C([H])([H])[H])C([H])([H])c2c([H])c(OC3([H])C([H])([H])C([H])([H])C4(C([H])([H])C3([H])[H])C([H])([H])C([H])([H])C([H])([H])[N+]([H])(C([H])([H])C([H])([H])C([H])([H])C(=O)N3C([H])([H])C([H])([H])C([H])([H])C([H])(n5nc(-c6c([H])c([H])c(Oc7c([H])c([H])c(F)c([H])c7F)c([H])c6[H])c(C(=O)N([H])[H])c5N([H])[H])C3([H])[H])C4([H])[H])c([H])c([H])c2C1([H])[H]

>  <smiles>  (60) 
[H]c1c([H])c([H])c2c(c1[H])C([H])([H])C([H])([H])C([H])([H])C2([H])N([H])C(=O)C1([H])N(C(=O)C([H])(N([H])C(=O)C([H])(N([H])C([H])([H])[H])C([H])([H])[H])C(C([H])([H])[H])(C([H])([H])[H])C([H])([H])[H])C([H])([H])c2c([H])c(OC3([H])C([H])([H])C([H])([H])C4(C([H])([H])C3([H])[H])C([H])([H])C([H])([H])C([H])([H])[N+]([H])(C([H])([H])C([H])([H])C([H])([H])C(=O)N3C([H])([H])C([H])([H])C([H])([H])C([H])(n5nc(-c6c([H])c([H])c(Oc7c([H])c([H])c(F)c([H])c7F)c([H])c6[H])c(C(=O)N([H])[H])c5N([H])[H])C3([H])[H])C4([H])[H])c([H])c([H])c2C1([H])[H]

$$$$
60:0:0
     RDKit          3D

 92100  0  0  1  0  0  0  0  0999 V2000
  -31.1320  -21.5810   18.5060 C   0  0  0  0  0  1  0  0  0  0  0  0
  -30.6780  -21.1850   19.8650 N   0  0  2  0  0  4  0  0  0  0  0  0
  -31.4110  -21.5060   20.4790 H   0  0  0  0  0  0  0  0  0  0  0  0
  -31.0740  -17.6560   21.5570 C   0  0  0  0  0  2  0  0  0  0  0  0
  -29.6340  -17.4140   19.4770 C   0  0  0  0  0  2  0  0  0  0  0  0
  -30.9020  -19.2000   21.4840 C   0  0  0  0  0  2  0  0  0  0  0  0
  -29.4680  -18.9520   19.4050 C   0  0  0  0  0  2  0  0  0  0  0  0
  -29.8660  -16.9300   20.9270 C   0  0  0  0  0  3  0  0  0  0  0  0
  -30.6820  -19.6840   20.0290 C   0  0  0  0  0  3  0  0  0  0  0  0
  -30.6260  -14.4990   20.5140 C   0  0  0  0  0  0  0  0  0  0  0  0
  -30.3760  -12.3360   19.3430 C   0  0  0  0  0  2  0  0  0  0  0  0
  -29.4280  -12.5510   18.1420 C   0  0  0  0  0  2  0  0  0  0  0  0
  -27.9520  -12.4120   18.5670 C   0  0  0  0  0  2  0  0  0  0  0  0
  -27.6170  -13.2330   19.8400 C   0  0  0  0  0  3  0  0  0  0  0  0
  -28.6680  -12.9710   20.9440 C   0  0  0  0  0  2  0  0  0  0  0  0
  -29.9980  -13.2960   20.3920 N   0  0  0  0  0  0  0  0  0  0  0  0
  -31.7310  -14.7350   20.0180 O   0  0  0  0  0  0  0  0  0  0  0  0
  -29.8560  -15.4600   21.0630 N   0  0  0  0  0  0  0  0  0  0  0  0
  -29.0100  -15.0920   21.4750 H   0  0  0  0  0  0  0  0  0  0  0  0
  -25.2150  -13.8560   20.5310 C   0  0  0  0  0  0  0  0  0  0  0  0
  -24.1420  -13.0900   20.8990 C   0  0  0  0  0  0  0  0  0  0  0  0
  -24.5970  -11.7370   20.8750 C   0  0  0  0  0  0  0  0  0  0  0  0
  -26.2590  -12.9690   20.3090 N   0  0  0  0  0  0  0  0  0  0  0  0
  -25.8890  -11.6890   20.5720 N   0  0  0  0  0  0  0  0  0  0  0  0
  -23.8660  -10.4780   21.0680 C   0  0  0  0  0  0  0  0  0  0  0  0
  -24.3040   -9.5040   21.9920 C   0  0  0  0  0  3  0  0  0  0  0  0
  -23.5740   -8.3090   22.1720 C   0  0  0  0  0  3  0  0  0  0  0  0
  -22.3930   -8.0800   21.4270 C   0  0  0  0  0  0  0  0  0  0  0  0
  -21.9740   -9.0420   20.4930 C   0  0  0  0  0  3  0  0  0  0  0  0
  -22.7050  -10.2290   20.3100 C   0  0  0  0  0  3  0  0  0  0  0  0
  -21.6340   -6.9370   21.5170 O   0  0  0  0  0  0  0  0  0  0  0  0
  -21.6070   -6.1800   22.6610 C   0  0  0  0  0  0  0  0  0  0  0  0
  -21.2210   -6.7230   23.9060 C   0  0  0  0  0  3  0  0  0  0  0  0
  -21.1400   -5.8930   25.0420 C   0  0  0  0  0  3  0  0  0  0  0  0
  -21.4340   -4.5200   24.9330 C   0  0  0  0  0  0  0  0  0  0  0  0
  -21.8120   -3.9760   23.6930 C   0  0  0  0  0  3  0  0  0  0  0  0
  -21.8950   -4.8040   22.5590 C   0  0  0  0  0  0  0  0  0  0  0  0
  -22.2400   -4.2720   21.3620 F   0  0  0  0  0  0  0  0  0  0  0  0
  -21.3490   -3.7200   26.0210 F   0  0  0  0  0  0  0  0  0  0  0  0
  -22.7460  -13.5730   21.1650 C   0  0  0  0  0  0  0  0  0  0  0  0
  -22.0120  -12.8830   22.0320 N   0  0  0  0  0  0  0  0  0  0  0  0
  -22.3120  -14.5980   20.6410 O   0  0  0  0  0  0  0  0  0  0  0  0
  -22.3750  -12.0530   22.4800 H   0  0  0  0  0  0  0  0  0  0  0  0
  -21.0750  -13.1880   22.2540 H   0  0  0  0  0  0  0  0  0  0  0  0
  -25.3870  -15.2250   20.3490 N   0  0  0  0  0  0  0  0  0  0  0  0
  -24.6220  -15.8830   20.4480 H   0  0  0  0  0  0  0  0  0  0  0  0
  -26.2400  -15.6570   20.0170 H   0  0  0  0  0  0  0  0  0  0  0  0
  -29.4400  -21.9200   20.2920 C   0  0  0  0  0  2  0  0  0  0  0  0
  -29.6130  -23.4760   20.3990 C   0  0  0  0  0  3  0  0  0  0  0  0
  -28.3570  -24.2470   20.8900 C   0  0  0  0  0  3  0  0  0  0  0  0
  -28.5760  -25.7450   21.2610 C   0  0  0  0  0  2  0  0  0  0  0  0
  -28.4540  -26.6790   20.1740 O   0  0  0  0  0  0  0  0  0  0  0  0
  -24.6420  -31.8940   23.2440 C   0  0  0  0  0  0  0  0  0  0  0  0
  -27.3010  -27.4340   20.1910 C   0  0  0  0  0  0  0  0  0  0  0  0
  -23.4410  -30.4750   21.6130 C   0  0  0  0  0  3  0  0  0  0  0  0
  -24.9020  -28.9330   20.1960 C   0  0  0  0  0  0  0  0  0  0  0  0
  -25.9680  -30.8360   21.4180 C   0  0  0  0  0  2  0  0  0  0  0  0
  -26.0580  -29.4630   20.7840 C   0  0  0  0  0  0  0  0  0  0  0  0
  -27.2630  -28.7190   20.7810 C   0  0  0  0  0  3  0  0  0  0  0  0
  -26.1330  -26.9180   19.5960 C   0  0  0  0  0  3  0  0  0  0  0  0
  -24.9350  -27.6590   19.5990 C   0  0  0  0  0  3  0  0  0  0  0  0
  -23.6540  -29.7870   20.2380 C   0  0  0  0  0  2  0  0  0  0  0  0
  -24.7030  -31.0810   22.1520 N   0  0  0  0  0  0  0  0  0  0  0  0
  -23.5560  -32.1880   23.7590 O   0  0  0  0  0  0  0  0  0  0  0  0
  -22.7910  -29.4570   22.5780 C   0  0  0  0  0  0  0  0  0  0  0  0
  -21.4670  -29.2730   22.4520 N   0  0  0  0  0  0  0  0  0  0  0  0
  -23.4760  -28.8350   23.3950 O   0  0  0  0  0  0  0  0  0  0  0  0
  -20.9760  -29.8270   21.7640 H   0  0  0  0  0  0  0  0  0  0  0  0
  -18.0950  -28.0730   22.9490 C   0  0  0  0  0  0  0  0  0  0  0  0
  -20.6510  -28.3350   23.2230 C   0  0  0  0  0  3  0  0  0  0  0  0
  -20.7570  -26.9030   22.6500 C   0  0  0  0  0  2  0  0  0  0  0  0
  -19.6570  -26.5770   21.6340 C   0  0  0  0  0  2  0  0  0  0  0  0
  -18.2730  -26.7220   22.2760 C   0  0  0  0  0  2  0  0  0  0  0  0
  -19.2110  -28.8370   23.3790 C   0  0  0  0  0  0  0  0  0  0  0  0
  -18.9900  -30.1020   23.9660 C   0  0  0  0  0  3  0  0  0  0  0  0
  -17.6850  -30.6020   24.1280 C   0  0  0  0  0  3  0  0  0  0  0  0
  -16.5830  -29.8350   23.7160 C   0  0  0  0  0  3  0  0  0  0  0  0
  -16.7880  -28.5720   23.1320 C   0  0  0  0  0  3  0  0  0  0  0  0
  -25.9280  -32.5200   23.8720 C   0  0  0  0  0  3  0  0  0  0  0  0
  -25.6190  -33.9170   24.2060 N   0  0  0  0  0  0  0  0  0  0  0  0
  -25.9380  -34.9690   23.4420 C   0  0  0  0  0  0  0  0  0  0  0  0
  -26.5980  -34.8670   22.4040 O   0  0  0  0  0  0  0  0  0  0  0  0
  -25.0310  -34.0690   25.0130 H   0  0  0  0  0  0  0  0  0  0  0  0
  -24.1920  -36.7460   23.1060 C   0  0  0  0  0  1  0  0  0  0  0  0
  -25.4480  -36.3550   23.9020 C   0  0  0  0  0  3  0  0  0  0  0  0
  -27.5890  -37.2550   24.6960 C   0  0  0  0  0  1  0  0  0  0  0  0
  -26.4720  -37.4130   23.7700 N   0  0  0  0  0  0  0  0  0  0  0  0
  -26.0620  -38.3310   23.9220 H   0  0  0  0  0  0  0  0  0  0  0  0
  -26.4480  -31.7450   25.1440 C   0  0  1  0  0  0  0  0  0  0  0  0
  -25.3580  -31.5020   26.2130 C   0  0  0  0  0  1  0  0  0  0  0  0
  -27.0340  -30.3700   24.7450 C   0  0  0  0  0  1  0  0  0  0  0  0
  -27.5990  -32.5390   25.8070 C   0  0  0  0  0  1  0  0  0  0  0  0
  1  2  1  0
  2 48  1  0
  2  3  1  1
  5  8  1  0
  6  4  1  0
  7  5  1  0
  7  9  1  0
  8 18  1  0
  8  4  1  0
  9  2  1  0
  9  6  1  0
 10 18  1  0
 11 16  1  0
 12 13  1  0
 12 11  1  0
 14 13  1  0
 14 23  1  0
 14 15  1  0
 16 10  1  0
 16 15  1  0
 17 10  2  0
 18 19  1  0
 20 21  2  0
 21 40  1  0
 22 21  1  0
 22 25  1  0
 23 20  1  0
 23 24  1  0
 24 22  2  0
 25 26  1  0
 26 27  2  0
 28 31  1  0
 28 27  1  0
 29 28  2  0
 30 29  1  0
 30 25  2  0
 31 32  1  0
 32 33  1  0
 33 34  2  0
 35 34  1  0
 35 39  1  0
 36 35  2  0
 37 32  2  0
 37 36  1  0
 38 37  1  0
 40 41  1  0
 41 44  1  0
 41 43  1  0
 42 40  2  0
 45 46  1  0
 45 20  1  0
 47 45  1  0
 48 49  1  0
 49 50  2  0
 50 51  1  0
 52 54  1  0
 52 51  1  0
 53 64  2  0
 54 59  1  0
 55 63  1  0
 55 65  1  0
 56 62  1  0
 56 58  1  0
 57 63  1  0
 58 57  1  0
 59 58  2  0
 60 61  1  0
 60 54  2  0
 61 56  2  0
 62 55  1  0
 63 53  1  0
 65 67  2  0
 66 65  1  0
 68 66  1  0
 69 78  2  0
 69 74  1  0
 70 66  1  0
 70 74  1  0
 71 70  1  0
 72 73  1  0
 72 71  1  0
 73 69  1  0
 74 75  2  0
 75 76  1  0
 77 76  2  0
 78 77  1  0
 79 53  1  0
 79 80  1  0
 79 89  1  0
 80 83  1  0
 81 85  1  0
 81 80  1  0
 82 81  2  0
 85 84  1  0
 87 85  1  0
 87 88  1  0
 87 86  1  0
 89 92  1  1
 89 90  1  0
 91 89  1  0
M  ISO  4  10 100  18 100  51 101  52 101
M  END
>  <TORSDO>  (61) 
F 21

>  <SCORE>  (61) 
-13.656

>  <name>  (61) 
60

>  <ligand_id>  (61) 
60

>  <original_smiles>  (61) 
[H]c1c([H])c([H])c2c(c1[H])C([H])([H])C([H])([H])C([H])([H])C2([H])N([H])C(=O)C1([H])N(C(=O)C([H])(N([H])C(=O)C([H])(N([H])C([H])([H])[H])C([H])([H])[H])C(C([H])([H])[H])(C([H])([H])[H])C([H])([H])[H])C([H])([H])c2c([H])c(OC([H])([H])C([H])([H])C([H])([H])C([H])([H])[N+]([H])(C([H])([H])[H])C3([H])C([H])([H])C([H])([H])C([H])(N([H])C(=O)N4C([H])([H])C([H])([H])C([H])([H])C([H])(n5nc(-c6c([H])c([H])c(Oc7c([H])c([H])c(F)c([H])c7F)c([H])c6[H])c(C(=O)N([H])[H])c5N([H])[H])C4([H])[H])C([H])([H])C3([H])[H])c([H])c([H])c2C1([H])[H]

>  <smiles>  (61) 
[H]c1c([H])c([H])c2c(c1[H])C([H])([H])C([H])([H])C([H])([H])C2([H])N([H])C(=O)C1([H])N(C(=O)C([H])(N([H])C(=O)C([H])(N([H])C([H])([H])[H])C([H])([H])[H])C(C([H])([H])[H])(C([H])([H])[H])C([H])([H])[H])C([H])([H])c2c([H])c(OC([H])([H])C([H])([H])C([H])([H])C([H])([H])[N+]([H])(C([H])([H])[H])C3([H])C([H])([H])C([H])([H])C([H])(N([H])C(=O)N4C([H])([H])C([H])([H])C([H])([H])C([H])(n5nc(-c6c([H])c([H])c(Oc7c([H])c([H])c(F)c([H])c7F)c([H])c6[H])c(C(=O)N([H])[H])c5N([H])[H])C4([H])[H])C([H])([H])C3([H])[H])c([H])c([H])c2C1([H])[H]

$$$$
61:0:0
     RDKit          3D

 94103  0  0  1  0  0  0  0  0999 V2000
  -28.1750  -24.2190   20.2170 C   0  0  0  0  0  3  0  0  0  0  0  0
  -30.3840  -24.3070   21.9410 C   0  0  0  0  0  3  0  0  0  0  0  0
  -28.6950  -22.9940   20.7520 C   0  0  0  0  0  0  0  0  0  0  0  0
  -29.8640  -25.5080   21.4170 C   0  0  0  0  0  0  0  0  0  0  0  0
  -28.7450  -25.4910   20.5500 C   0  0  0  0  0  0  0  0  0  0  0  0
  -29.8060  -23.0670   21.6190 C   0  0  0  0  0  0  0  0  0  0  0  0
  -30.5470  -26.8210   21.7580 C   0  0  0  0  0  1  0  0  0  0  0  0
  -30.3230  -21.9420   22.1680 F   0  0  0  0  0  0  0  0  0  0  0  0
  -28.4100  -26.6960   19.9400 O   0  0  0  0  0  0  0  0  0  0  0  0
  -24.6200  -31.8920   23.2120 C   0  0  0  0  0  0  0  0  0  0  0  0
  -27.2210  -27.3840   20.1270 C   0  0  0  0  0  0  0  0  0  0  0  0
  -23.3980  -30.4820   21.5910 C   0  0  0  0  0  3  0  0  0  0  0  0
  -24.8350  -28.9210   20.1710 C   0  0  0  0  0  0  0  0  0  0  0  0
  -25.9280  -30.8160   21.3770 C   0  0  0  0  0  2  0  0  0  0  0  0
  -26.0020  -29.4340   20.7510 C   0  0  0  0  0  0  0  0  0  0  0  0
  -27.1980  -28.6710   20.7300 C   0  0  0  0  0  3  0  0  0  0  0  0
  -26.0360  -26.8930   19.5460 C   0  0  0  0  0  3  0  0  0  0  0  0
  -24.8470  -27.6480   19.5730 C   0  0  0  0  0  3  0  0  0  0  0  0
  -23.5990  -29.7940   20.2160 C   0  0  0  0  0  2  0  0  0  0  0  0
  -24.6690  -31.0770   22.1190 N   0  0  0  0  0  0  0  0  0  0  0  0
  -23.5390  -32.1910   23.7350 O   0  0  0  0  0  0  0  0  0  0  0  0
  -22.7510  -29.4650   22.5600 C   0  0  0  0  0  0  0  0  0  0  0  0
  -21.4230  -29.2850   22.4460 N   0  0  0  0  0  0  0  0  0  0  0  0
  -23.4390  -28.8410   23.3700 O   0  0  0  0  0  0  0  0  0  0  0  0
  -20.9260  -29.8410   21.7640 H   0  0  0  0  0  0  0  0  0  0  0  0
  -18.0540  -28.0850   22.9650 C   0  0  0  0  0  0  0  0  0  0  0  0
  -20.6130  -28.3470   23.2240 C   0  0  0  0  0  3  0  0  0  0  0  0
  -20.7150  -26.9140   22.6520 C   0  0  0  0  0  2  0  0  0  0  0  0
  -19.6090  -26.5870   21.6440 C   0  0  0  0  0  2  0  0  0  0  0  0
  -18.2290  -26.7330   22.2940 C   0  0  0  0  0  2  0  0  0  0  0  0
  -19.1730  -28.8480   23.3890 C   0  0  0  0  0  0  0  0  0  0  0  0
  -18.9560  -30.1140   23.9770 C   0  0  0  0  0  3  0  0  0  0  0  0
  -17.6510  -30.6140   24.1460 C   0  0  0  0  0  3  0  0  0  0  0  0
  -16.5460  -29.8470   23.7400 C   0  0  0  0  0  3  0  0  0  0  0  0
  -16.7490  -28.5840   23.1540 C   0  0  0  0  0  3  0  0  0  0  0  0
  -25.9130  -32.5120   23.8310 C   0  0  0  0  0  3  0  0  0  0  0  0
  -26.4490  -31.7260   25.0910 C   0  0  1  0  0  0  0  0  0  0  0  0
  -25.3710  -31.4800   26.1700 C   0  0  0  0  0  1  0  0  0  0  0  0
  -27.0250  -30.3530   24.6740 C   0  0  0  0  0  1  0  0  0  0  0  0
  -27.6100  -32.5120   25.7440 C   0  0  0  0  0  1  0  0  0  0  0  0
  -25.6080  -33.9060   24.1820 N   0  0  0  0  0  0  0  0  0  0  0  0
  -25.9250  -34.9660   23.4260 C   0  0  0  0  0  0  0  0  0  0  0  0
  -26.5750  -34.8720   22.3810 O   0  0  0  0  0  0  0  0  0  0  0  0
  -25.0280  -34.0530   24.9950 H   0  0  0  0  0  0  0  0  0  0  0  0
  -24.1820  -36.7500   23.1220 C   0  0  0  0  0  1  0  0  0  0  0  0
  -25.4430  -36.3490   23.9040 C   0  0  0  0  0  3  0  0  0  0  0  0
  -27.5940  -37.2320   24.6870 C   0  0  0  0  0  1  0  0  0  0  0  0
  -26.4680  -37.4060   23.7730 N   0  0  0  0  0  0  0  0  0  0  0  0
  -26.0650  -38.3230   23.9380 H   0  0  0  0  0  0  0  0  0  0  0  0
  -28.0420  -21.6100   20.4950 C   0  0  0  0  0  2  0  0  0  0  0  0
  -28.7760  -20.6000   19.5460 C   0  0  0  0  0  2  0  0  0  0  0  0
  -30.7000  -18.9740   19.0460 C   0  0  0  0  0  2  0  0  0  0  0  0
  -31.0390  -17.5000   19.3470 C   0  0  0  0  0  2  0  0  0  0  0  0
  -29.1020  -18.1340   20.6350 C   0  0  0  0  0  2  0  0  0  0  0  0
  -29.7190  -19.4740   20.1220 C   0  0  0  0  0  3  0  0  0  0  0  0
  -30.2630  -17.0900   20.6140 C   0  0  0  0  0  3  0  0  0  0  0  0
  -30.6320  -14.5580   20.4180 C   0  0  0  0  0  0  0  0  0  0  0  0
  -30.3740  -12.3400   19.3720 C   0  0  0  0  0  2  0  0  0  0  0  0
  -29.4500  -12.5120   18.1460 C   0  0  0  0  0  2  0  0  0  0  0  0
  -27.9710  -12.3680   18.5630 C   0  0  0  0  0  2  0  0  0  0  0  0
  -27.6120  -13.2360   19.8020 C   0  0  0  0  0  3  0  0  0  0  0  0
  -28.6590  -13.0720   20.9270 C   0  0  0  0  0  2  0  0  0  0  0  0
  -29.9780  -13.3650   20.3510 N   0  0  0  0  0  0  0  0  0  0  0  0
  -31.8140  -14.6730   20.0840 O   0  0  0  0  0  0  0  0  0  0  0  0
  -29.8580  -15.6530   20.6500 N   0  0  0  0  0  0  0  0  0  0  0  0
  -28.8950  -15.4580   20.8790 H   0  0  0  0  0  0  0  0  0  0  0  0
  -25.2140  -13.8470   20.4980 C   0  0  0  0  0  0  0  0  0  0  0  0
  -24.1420  -13.0800   20.8670 C   0  0  0  0  0  0  0  0  0  0  0  0
  -24.6040  -11.7260   20.8530 C   0  0  0  0  0  0  0  0  0  0  0  0
  -26.2570  -12.9630   20.2780 N   0  0  0  0  0  0  0  0  0  0  0  0
  -25.8950  -11.6840   20.5520 N   0  0  0  0  0  0  0  0  0  0  0  0
  -23.8740  -10.4650   21.0500 C   0  0  0  0  0  0  0  0  0  0  0  0
  -24.3110   -9.4950   21.9780 C   0  0  0  0  0  3  0  0  0  0  0  0
  -23.5820   -8.3000   22.1620 C   0  0  0  0  0  3  0  0  0  0  0  0
  -22.4000   -8.0670   21.4180 C   0  0  0  0  0  0  0  0  0  0  0  0
  -21.9830   -9.0270   20.4770 C   0  0  0  0  0  3  0  0  0  0  0  0
  -22.7140  -10.2120   20.2920 C   0  0  0  0  0  3  0  0  0  0  0  0
  -21.6450   -6.9250   21.5090 O   0  0  0  0  0  0  0  0  0  0  0  0
  -21.6180   -6.1690   22.6550 C   0  0  0  0  0  0  0  0  0  0  0  0
  -21.2410   -6.7170   23.8990 C   0  0  0  0  0  3  0  0  0  0  0  0
  -21.1580   -5.8900   25.0390 C   0  0  0  0  0  3  0  0  0  0  0  0
  -21.4460   -4.5160   24.9320 C   0  0  0  0  0  0  0  0  0  0  0  0
  -21.8220   -3.9680   23.6940 C   0  0  0  0  0  3  0  0  0  0  0  0
  -21.9050   -4.7930   22.5570 C   0  0  0  0  0  0  0  0  0  0  0  0
  -22.2450   -4.2560   21.3610 F   0  0  0  0  0  0  0  0  0  0  0  0
  -21.3610   -3.7200   26.0230 F   0  0  0  0  0  0  0  0  0  0  0  0
  -22.7430  -13.5620   21.1210 C   0  0  0  0  0  0  0  0  0  0  0  0
  -22.0050  -12.8800   21.9890 N   0  0  0  0  0  0  0  0  0  0  0  0
  -22.3120  -14.5820   20.5860 O   0  0  0  0  0  0  0  0  0  0  0  0
  -22.3640  -12.0560   22.4460 H   0  0  0  0  0  0  0  0  0  0  0  0
  -21.0670  -13.1920   22.2000 H   0  0  0  0  0  0  0  0  0  0  0  0
  -25.3810  -15.2160   20.3100 N   0  0  0  0  0  0  0  0  0  0  0  0
  -24.6170  -15.8750   20.4220 H   0  0  0  0  0  0  0  0  0  0  0  0
  -26.2200  -15.6450   19.9420 H   0  0  0  0  0  0  0  0  0  0  0  0
  1  5  2  0
  1  3  1  0
  3  6  2  0
  4  7  1  0
  4  2  2  0
  5  4  1  0
  6  2  1  0
  6  8  1  0
  9 11  1  0
  9  5  1  0
 10 21  2  0
 11 16  1  0
 12 20  1  0
 12 22  1  0
 13 19  1  0
 13 15  1  0
 14 20  1  0
 15 14  1  0
 16 15  2  0
 17 18  1  0
 17 11  2  0
 18 13  2  0
 19 12  1  0
 20 10  1  0
 22 24  2  0
 23 22  1  0
 25 23  1  0
 26 35  2  0
 26 31  1  0
 27 23  1  0
 27 31  1  0
 28 27  1  0
 29 30  1  0
 29 28  1  0
 30 26  1  0
 31 32  2  0
 32 33  1  0
 34 33  2  0
 35 34  1  0
 36 10  1  0
 36 41  1  0
 36 37  1  0
 37 40  1  1
 37 38  1  0
 39 37  1  0
 41 44  1  0
 42 46  1  0
 42 41  1  0
 43 42  2  0
 46 45  1  0
 48 46  1  0
 48 49  1  0
 48 47  1  0
 50  3  1  0
 51 50  1  0
 52 53  1  0
 52 55  1  0
 53 56  1  0
 55 51  1  0
 55 54  1  0
 56 54  1  0
 56 65  1  0
 57 65  1  0
 58 63  1  0
 59 60  1  0
 59 58  1  0
 61 60  1  0
 61 70  1  0
 61 62  1  0
 63 57  1  0
 63 62  1  0
 64 57  2  0
 65 66  1  0
 67 68  2  0
 68 87  1  0
 69 68  1  0
 69 72  1  0
 70 67  1  0
 70 71  1  0
 71 69  2  0
 72 73  1  0
 73 74  2  0
 75 78  1  0
 75 74  1  0
 76 75  2  0
 77 76  1  0
 77 72  2  0
 78 79  1  0
 79 80  1  0
 80 81  2  0
 82 81  1  0
 82 86  1  0
 83 82  2  0
 84 79  2  0
 84 83  1  0
 85 84  1  0
 87 88  1  0
 88 91  1  0
 88 90  1  0
 89 87  2  0
 92 93  1  0
 92 67  1  0
 94 92  1  0
M  ISO  4   5 101   9 101  57 100  65 100
M  END
>  <TORSDO>  (62) 
F 19

>  <SCORE>  (62) 
-14.478

>  <name>  (62) 
61

>  <ligand_id>  (62) 
61

>  <original_smiles>  (62) 
[H]c1c([H])c([H])c2c(c1[H])C([H])([H])C([H])([H])C([H])([H])C2([H])N([H])C(=O)C1([H])N(C(=O)C([H])(N([H])C(=O)C([H])(N([H])C([H])([H])[H])C([H])([H])[H])C(C([H])([H])[H])(C([H])([H])[H])C([H])([H])[H])C([H])([H])c2c([H])c(Oc3c([H])c(C([H])([H])C([H])([H])C4([H])C([H])([H])C([H])([H])C([H])(N([H])C(=O)N5C([H])([H])C([H])([H])C([H])([H])C([H])(n6nc(-c7c([H])c([H])c(Oc8c([H])c([H])c(F)c([H])c8F)c([H])c7[H])c(C(=O)N([H])[H])c6N([H])[H])C5([H])[H])C4([H])[H])c(F)c([H])c3C([H])([H])[H])c([H])c([H])c2C1([H])[H]

>  <smiles>  (62) 
[H]c1c([H])c([H])c2c(c1[H])C([H])([H])C([H])([H])C([H])([H])C2([H])N([H])C(=O)C1([H])N(C(=O)C([H])(N([H])C(=O)C([H])(N([H])C([H])([H])[H])C([H])([H])[H])C(C([H])([H])[H])(C([H])([H])[H])C([H])([H])[H])C([H])([H])c2c([H])c(Oc3c([H])c(C([H])([H])C([H])([H])C4([H])C([H])([H])C([H])([H])C([H])(N([H])C(=O)N5C([H])([H])C([H])([H])C([H])([H])C([H])(n6nc(-c7c([H])c([H])c(Oc8c([H])c([H])c(F)c([H])c8F)c([H])c7[H])c(C(=O)N([H])[H])c6N([H])[H])C5([H])[H])C4([H])[H])c(F)c([H])c3C([H])([H])[H])c([H])c([H])c2C1([H])[H]

$$$$
62:0:0
     RDKit          3D

 92100  0  0  1  0  0  0  0  0999 V2000
  -29.8950  -23.0730   20.2000 C   0  0  0  0  0  0  0  0  0  0  0  0
  -29.5630  -24.3860   20.0170 C   0  0  0  0  0  3  0  0  0  0  0  0
  -31.2710  -22.5390   19.8970 C   0  0  0  0  0  2  0  0  0  0  0  0
  -29.0660  -21.8560   20.6290 C   0  0  0  0  0  2  0  0  0  0  0  0
  -31.0480  -21.1230   19.3520 C   0  0  0  0  0  2  0  0  0  0  0  0
  -29.7240  -20.6000   19.9470 C   0  0  0  0  0  3  0  0  0  0  0  0
  -30.2310  -18.1130   20.4000 C   0  0  0  0  0  0  0  0  0  0  0  0
  -30.1170  -17.7560   19.1090 N   0  0  0  0  0  4  0  0  0  0  0  0
  -29.9820  -19.3970   20.8080 N   0  0  0  0  0  0  0  0  0  0  0  0
  -30.4250  -16.8450   18.7950 H   0  0  0  0  0  0  0  0  0  0  0  0
  -29.7790  -18.3820   18.3930 H   0  0  0  0  0  0  0  0  0  0  0  0
  -30.1160  -19.5990   21.7910 H   0  0  0  0  0  0  0  0  0  0  0  0
  -30.6920  -17.0540   21.3990 C   0  0  0  0  0  2  0  0  0  0  0  0
  -29.9740  -15.6640   21.2800 C   0  0  0  0  0  2  0  0  0  0  0  0
  -30.6510  -14.5230   20.4650 C   0  0  0  0  0  0  0  0  0  0  0  0
  -30.3600  -12.3700   19.2490 C   0  0  0  0  0  2  0  0  0  0  0  0
  -29.4080  -12.5880   18.0550 C   0  0  0  0  0  2  0  0  0  0  0  0
  -27.9340  -12.4500   18.4900 C   0  0  0  0  0  2  0  0  0  0  0  0
  -27.6110  -13.2630   19.7700 C   0  0  0  0  0  3  0  0  0  0  0  0
  -28.6750  -13.0170   20.8650 C   0  0  0  0  0  2  0  0  0  0  0  0
  -29.9940  -13.3370   20.2970 N   0  0  0  0  0  0  0  0  0  0  0  0
  -31.7400  -14.7370   19.9250 O   0  0  0  0  0  0  0  0  0  0  0  0
  -25.2150  -13.8760   20.4810 C   0  0  0  0  0  0  0  0  0  0  0  0
  -24.1460  -13.1060   20.8540 C   0  0  0  0  0  0  0  0  0  0  0  0
  -24.6040  -11.7530   20.8280 C   0  0  0  0  0  0  0  0  0  0  0  0
  -26.2590  -12.9910   20.2520 N   0  0  0  0  0  0  0  0  0  0  0  0
  -25.8940  -11.7110   20.5180 N   0  0  0  0  0  0  0  0  0  0  0  0
  -23.8770  -10.4930   21.0280 C   0  0  0  0  0  0  0  0  0  0  0  0
  -24.3160   -9.5250   21.9570 C   0  0  0  0  0  3  0  0  0  0  0  0
  -23.5880   -8.3300   22.1450 C   0  0  0  0  0  3  0  0  0  0  0  0
  -22.4060   -8.0970   21.4030 C   0  0  0  0  0  0  0  0  0  0  0  0
  -21.9830   -9.0550   20.4650 C   0  0  0  0  0  3  0  0  0  0  0  0
  -22.7110  -10.2420   20.2770 C   0  0  0  0  0  3  0  0  0  0  0  0
  -21.6500   -6.9520   21.4960 O   0  0  0  0  0  0  0  0  0  0  0  0
  -21.6220   -6.2000   22.6430 C   0  0  0  0  0  0  0  0  0  0  0  0
  -21.2290   -6.7500   23.8830 C   0  0  0  0  0  3  0  0  0  0  0  0
  -21.1450   -5.9260   25.0230 C   0  0  0  0  0  3  0  0  0  0  0  0
  -21.4460   -4.5540   24.9250 C   0  0  0  0  0  0  0  0  0  0  0  0
  -21.8330   -4.0050   23.6900 C   0  0  0  0  0  3  0  0  0  0  0  0
  -21.9160   -4.8250   22.5510 C   0  0  0  0  0  0  0  0  0  0  0  0
  -22.2690   -4.2870   21.3600 F   0  0  0  0  0  0  0  0  0  0  0  0
  -21.3600   -3.7610   26.0180 F   0  0  0  0  0  0  0  0  0  0  0  0
  -22.7510  -13.5890   21.1290 C   0  0  0  0  0  0  0  0  0  0  0  0
  -22.0260  -12.8970   22.0020 N   0  0  0  0  0  0  0  0  0  0  0  0
  -22.3110  -14.6110   20.6040 O   0  0  0  0  0  0  0  0  0  0  0  0
  -22.3960  -12.0690   22.4440 H   0  0  0  0  0  0  0  0  0  0  0  0
  -21.0900  -13.2010   22.2300 H   0  0  0  0  0  0  0  0  0  0  0  0
  -25.3790  -15.2450   20.2960 N   0  0  0  0  0  0  0  0  0  0  0  0
  -24.6130  -15.8980   20.4110 H   0  0  0  0  0  0  0  0  0  0  0  0
  -26.2290  -15.6860   19.9680 H   0  0  0  0  0  0  0  0  0  0  0  0
  -28.2260  -25.1250   20.1820 C   0  0  0  0  0  2  0  0  0  0  0  0
  -28.3590  -26.5830   20.1900 O   0  0  0  0  0  0  0  0  0  0  0  0
  -24.6020  -31.8880   23.2550 C   0  0  0  0  0  0  0  0  0  0  0  0
  -27.2020  -27.3630   20.1790 C   0  0  0  0  0  0  0  0  0  0  0  0
  -23.3860  -30.4850   21.6300 C   0  0  0  0  0  3  0  0  0  0  0  0
  -24.8240  -28.9390   20.1990 C   0  0  0  0  0  0  0  0  0  0  0  0
  -25.9210  -30.8120   21.4280 C   0  0  0  0  0  2  0  0  0  0  0  0
  -25.9960  -29.4400   20.7780 C   0  0  0  0  0  0  0  0  0  0  0  0
  -27.1880  -28.6660   20.7550 C   0  0  0  0  0  3  0  0  0  0  0  0
  -26.0010  -26.8970   19.5930 C   0  0  0  0  0  3  0  0  0  0  0  0
  -24.8260  -27.6690   19.6020 C   0  0  0  0  0  3  0  0  0  0  0  0
  -23.5880  -29.8100   20.2490 C   0  0  0  0  0  2  0  0  0  0  0  0
  -24.6560  -31.0720   22.1640 N   0  0  0  0  0  0  0  0  0  0  0  0
  -23.5180  -32.1910   23.7720 O   0  0  0  0  0  0  0  0  0  0  0  0
  -22.7320  -29.4650   22.5910 C   0  0  0  0  0  0  0  0  0  0  0  0
  -21.4070  -29.2790   22.4630 N   0  0  0  0  0  0  0  0  0  0  0  0
  -23.4130  -28.8420   23.4090 O   0  0  0  0  0  0  0  0  0  0  0  0
  -20.9170  -29.8340   21.7750 H   0  0  0  0  0  0  0  0  0  0  0  0
  -18.0350  -28.0710   22.9560 C   0  0  0  0  0  0  0  0  0  0  0  0
  -20.5910  -28.3410   23.2340 C   0  0  0  0  0  3  0  0  0  0  0  0
  -20.7010  -26.9080   22.6640 C   0  0  0  0  0  2  0  0  0  0  0  0
  -19.6030  -26.5760   21.6470 C   0  0  0  0  0  2  0  0  0  0  0  0
  -18.2190  -26.7190   22.2860 C   0  0  0  0  0  2  0  0  0  0  0  0
  -19.1490  -28.8390   23.3860 C   0  0  0  0  0  0  0  0  0  0  0  0
  -18.9240  -30.1030   23.9720 C   0  0  0  0  0  3  0  0  0  0  0  0
  -17.6160  -30.6010   24.1290 C   0  0  0  0  0  3  0  0  0  0  0  0
  -16.5170  -29.8300   23.7140 C   0  0  0  0  0  3  0  0  0  0  0  0
  -16.7260  -28.5670   23.1340 C   0  0  0  0  0  3  0  0  0  0  0  0
  -25.8920  -32.5060   23.8820 C   0  0  0  0  0  3  0  0  0  0  0  0
  -26.4060  -31.7310   25.1570 C   0  0  1  0  0  0  0  0  0  0  0  0
  -25.3120  -31.5000   26.2250 C   0  0  0  0  0  1  0  0  0  0  0  0
  -26.9810  -30.3500   24.7660 C   0  0  0  0  0  1  0  0  0  0  0  0
  -27.5630  -32.5180   25.8160 C   0  0  0  0  0  1  0  0  0  0  0  0
  -25.5930  -33.9050   24.2130 N   0  0  0  0  0  0  0  0  0  0  0  0
  -25.9170  -34.9530   23.4450 C   0  0  0  0  0  0  0  0  0  0  0  0
  -26.5740  -34.8450   22.4060 O   0  0  0  0  0  0  0  0  0  0  0  0
  -25.0070  -34.0640   25.0200 H   0  0  0  0  0  0  0  0  0  0  0  0
  -24.1810  -36.7420   23.1110 C   0  0  0  0  0  1  0  0  0  0  0  0
  -25.4370  -36.3430   23.9030 C   0  0  0  0  0  3  0  0  0  0  0  0
  -27.5890  -37.2310   24.6870 C   0  0  0  0  0  1  0  0  0  0  0  0
  -26.4670  -37.3960   23.7660 N   0  0  0  0  0  0  0  0  0  0  0  0
  -26.0630  -38.3170   23.9220 H   0  0  0  0  0  0  0  0  0  0  0  0
  1  4  1  0
  2 51  1  0
  2  1  2  0
  3  1  1  0
  5  3  1  0
  5  6  1  0
  6  4  1  0
  6  9  1  0
  7  9  1  0
  7 13  1  0
  8  7  2  0
  9 12  1  0
 10  8  1  0
 11  8  1  0
 14 13  1  0
 15 14  1  0
 16 21  1  0
 17 18  1  0
 17 16  1  0
 19 18  1  0
 19 26  1  0
 19 20  1  0
 21 15  1  0
 21 20  1  0
 22 15  2  0
 23 24  2  0
 24 43  1  0
 25 24  1  0
 25 28  1  0
 26 23  1  0
 26 27  1  0
 27 25  2  0
 28 29  1  0
 29 30  2  0
 31 34  1  0
 31 30  1  0
 32 31  2  0
 33 32  1  0
 33 28  2  0
 34 35  1  0
 35 36  1  0
 36 37  2  0
 38 37  1  0
 38 42  1  0
 39 38  2  0
 40 35  2  0
 40 39  1  0
 41 40  1  0
 43 44  1  0
 44 47  1  0
 44 46  1  0
 45 43  2  0
 48 49  1  0
 48 23  1  0
 50 48  1  0
 51 52  1  0
 53 64  2  0
 54 52  1  0
 54 59  1  0
 55 63  1  0
 55 65  1  0
 56 62  1  0
 56 58  1  0
 57 63  1  0
 58 57  1  0
 59 58  2  0
 60 61  1  0
 60 54  2  0
 61 56  2  0
 62 55  1  0
 63 53  1  0
 65 67  2  0
 66 65  1  0
 68 66  1  0
 69 78  2  0
 69 74  1  0
 70 66  1  0
 70 74  1  0
 71 70  1  0
 72 73  1  0
 72 71  1  0
 73 69  1  0
 74 75  2  0
 75 76  1  0
 77 76  2  0
 78 77  1  0
 79 53  1  0
 79 84  1  0
 79 80  1  0
 80 83  1  1
 80 81  1  0
 82 80  1  0
 84 87  1  0
 85 89  1  0
 85 84  1  0
 86 85  2  0
 89 88  1  0
 91 89  1  0
 91 92  1  0
 91 90  1  0
M  ISO  4  14 100  15 100  51 101  52 101
M  END
>  <TORSDO>  (63) 
F 20

>  <SCORE>  (63) 
-13.917

>  <name>  (63) 
62

>  <ligand_id>  (63) 
62

>  <original_smiles>  (63) 
[H]C(=C1C([H])([H])C([H])([H])C([H])([N+]([H])=C(N([H])[H])C([H])([H])C([H])([H])C(=O)N2C([H])([H])C([H])([H])C([H])([H])C([H])(n3nc(-c4c([H])c([H])c(Oc5c([H])c([H])c(F)c([H])c5F)c([H])c4[H])c(C(=O)N([H])[H])c3N([H])[H])C2([H])[H])C1([H])[H])C([H])([H])Oc1c([H])c([H])c2c(c1[H])C([H])([H])N(C(=O)C([H])(N([H])C(=O)C([H])(N([H])C([H])([H])[H])C([H])([H])[H])C(C([H])([H])[H])(C([H])([H])[H])C([H])([H])[H])C([H])(C(=O)N([H])C1([H])c3c([H])c([H])c([H])c([H])c3C([H])([H])C([H])([H])C1([H])[H])C2([H])[H]

>  <smiles>  (63) 
[H]C(=C1C([H])([H])C([H])([H])C([H])([N+]([H])=C(N([H])[H])C([H])([H])C([H])([H])C(=O)N2C([H])([H])C([H])([H])C([H])([H])C([H])(n3nc(-c4c([H])c([H])c(Oc5c([H])c([H])c(F)c([H])c5F)c([H])c4[H])c(C(=O)N([H])[H])c3N([H])[H])C2([H])[H])C1([H])[H])C([H])([H])Oc1c([H])c([H])c2c(c1[H])C([H])([H])N(C(=O)C([H])(N([H])C(=O)C([H])(N([H])C([H])([H])[H])C([H])([H])[H])C(C([H])([H])[H])(C([H])([H])[H])C([H])([H])[H])C([H])(C(=O)N([H])C1([H])c3c([H])c([H])c([H])c([H])c3C([H])([H])C([H])([H])C1([H])[H])C2([H])[H]

$$$$
63:0:0
     RDKit          3D

 95104  0  0  1  0  0  0  0  0999 V2000
  -27.0620  -20.5300   18.7780 C   0  0  0  0  0  2  0  0  0  0  0  0
  -27.2840  -19.2500   19.0920 C   0  0  0  0  0  2  0  0  0  0  0  0
  -30.2100  -20.5730   19.6340 C   0  0  0  0  0  2  0  0  0  0  0  0
  -27.8270  -21.0590   19.9840 C   0  0  0  0  0  3  0  0  0  0  0  0
  -28.0800  -19.5930   20.3420 C   0  0  0  0  0  3  0  0  0  0  0  0
  -29.1580  -21.7260   19.6340 C   0  0  0  0  0  3  0  0  0  0  0  0
  -29.5670  -19.2810   20.2130 C   0  0  0  0  0  3  0  0  0  0  0  0
  -29.5140  -22.8520   20.6290 C   0  0  0  0  0  0  0  0  0  0  0  0
  -29.5880  -24.0980   20.1330 N   0  0  0  0  0  0  0  0  0  0  0  0
  -29.7250  -22.6030   21.8180 O   0  0  0  0  0  0  0  0  0  0  0  0
  -29.3760  -24.2210   19.1520 H   0  0  0  0  0  0  0  0  0  0  0  0
  -29.9870  -25.3040   20.8650 C   0  0  0  0  0  2  0  0  0  0  0  0
  -28.8130  -26.2760   21.0900 C   0  0  0  0  0  2  0  0  0  0  0  0
  -28.3530  -26.7930   19.8450 O   0  0  0  0  0  0  0  0  0  0  0  0
  -24.5990  -31.8970   23.1510 C   0  0  0  0  0  0  0  0  0  0  0  0
  -27.2010  -27.5360   19.9320 C   0  0  0  0  0  0  0  0  0  0  0  0
  -23.3630  -30.5140   21.5110 C   0  0  0  0  0  3  0  0  0  0  0  0
  -24.7950  -29.0100   20.0290 C   0  0  0  0  0  0  0  0  0  0  0  0
  -25.8820  -30.8900   21.2710 C   0  0  0  0  0  2  0  0  0  0  0  0
  -25.9600  -29.5310   20.6090 C   0  0  0  0  0  0  0  0  0  0  0  0
  -27.1660  -28.7990   20.5670 C   0  0  0  0  0  3  0  0  0  0  0  0
  -26.0280  -27.0270   19.3420 C   0  0  0  0  0  3  0  0  0  0  0  0
  -24.8230  -27.7540   19.3950 C   0  0  0  0  0  3  0  0  0  0  0  0
  -23.5470  -29.8580   20.1170 C   0  0  0  0  0  2  0  0  0  0  0  0
  -24.6340  -31.1110   22.0380 N   0  0  0  0  0  0  0  0  0  0  0  0
  -23.5240  -32.1750   23.6990 O   0  0  0  0  0  0  0  0  0  0  0  0
  -22.7370  -29.4730   22.4670 C   0  0  0  0  0  0  0  0  0  0  0  0
  -21.4100  -29.2950   22.3700 N   0  0  0  0  0  0  0  0  0  0  0  0
  -23.4400  -28.8280   23.2480 O   0  0  0  0  0  0  0  0  0  0  0  0
  -20.9040  -29.8660   21.7060 H   0  0  0  0  0  0  0  0  0  0  0  0
  -18.0480  -28.0830   22.9080 C   0  0  0  0  0  0  0  0  0  0  0  0
  -20.6100  -28.3400   23.1360 C   0  0  0  0  0  3  0  0  0  0  0  0
  -20.7050  -26.9210   22.5300 C   0  0  0  0  0  2  0  0  0  0  0  0
  -19.5840  -26.6150   21.5310 C   0  0  0  0  0  2  0  0  0  0  0  0
  -18.2140  -26.7460   22.2040 C   0  0  0  0  0  2  0  0  0  0  0  0
  -19.1740  -28.8380   23.3310 C   0  0  0  0  0  0  0  0  0  0  0  0
  -18.9660  -30.0890   23.9490 C   0  0  0  0  0  3  0  0  0  0  0  0
  -17.6640  -30.5860   24.1490 C   0  0  0  0  0  3  0  0  0  0  0  0
  -16.5530  -29.8280   23.7430 C   0  0  0  0  0  3  0  0  0  0  0  0
  -16.7460  -28.5770   23.1280 C   0  0  0  0  0  3  0  0  0  0  0  0
  -25.8990  -32.5080   23.7640 C   0  0  0  0  0  3  0  0  0  0  0  0
  -25.6070  -33.9040   24.1110 N   0  0  0  0  0  0  0  0  0  0  0  0
  -25.9270  -34.9580   23.3490 C   0  0  0  0  0  0  0  0  0  0  0  0
  -26.5740  -34.8570   22.3030 O   0  0  0  0  0  0  0  0  0  0  0  0
  -25.0330  -34.0580   24.9270 H   0  0  0  0  0  0  0  0  0  0  0  0
  -24.1950  -36.7530   23.0370 C   0  0  0  0  0  1  0  0  0  0  0  0
  -25.4510  -36.3450   23.8220 C   0  0  0  0  0  3  0  0  0  0  0  0
  -27.6050  -37.2180   24.6150 C   0  0  0  0  0  1  0  0  0  0  0  0
  -26.4840  -37.3960   23.6950 N   0  0  0  0  0  0  0  0  0  0  0  0
  -26.0840  -38.3160   23.8590 H   0  0  0  0  0  0  0  0  0  0  0  0
  -26.4310  -31.7200   25.0230 C   0  0  1  0  0  0  0  0  0  0  0  0
  -25.3530  -31.4860   26.1060 C   0  0  0  0  0  1  0  0  0  0  0  0
  -26.9940  -30.3430   24.6050 C   0  0  0  0  0  1  0  0  0  0  0  0
  -27.6000  -32.4980   25.6730 C   0  0  0  0  0  1  0  0  0  0  0  0
  -30.8350  -17.9530   21.7810 C   0  0  0  0  0  0  0  0  0  0  0  0
  -31.3050  -17.7290   23.2030 C   0  0  0  0  0  1  0  0  0  0  0  0
  -30.1090  -18.9780   21.5330 N   0  0  0  0  0  0  0  0  0  0  0  0
  -31.3000  -16.8710   20.8040 C   0  0  0  0  0  2  0  0  0  0  0  0
  -30.4750  -15.5670   20.9260 C   0  0  0  0  0  2  0  0  0  0  0  0
  -31.0240  -14.4030   20.0790 C   0  0  0  0  0  0  0  0  0  0  0  0
  -30.6180  -12.2330   18.9680 C   0  0  0  0  0  2  0  0  0  0  0  0
  -29.6450  -12.4170   17.7860 C   0  0  0  0  0  2  0  0  0  0  0  0
  -28.1800  -12.3450   18.2620 C   0  0  0  0  0  2  0  0  0  0  0  0
  -27.9080  -13.2480   19.4960 C   0  0  0  0  0  3  0  0  0  0  0  0
  -28.9840  -13.0280   20.5830 C   0  0  0  0  0  2  0  0  0  0  0  0
  -30.3020  -13.2570   19.9730 N   0  0  0  0  0  0  0  0  0  0  0  0
  -32.0880  -14.5670   19.4710 O   0  0  0  0  0  0  0  0  0  0  0  0
  -25.5650  -13.9740   20.2820 C   0  0  0  0  0  0  0  0  0  0  0  0
  -24.4730  -13.2550   20.6860 C   0  0  0  0  0  0  0  0  0  0  0  0
  -24.8650  -11.8820   20.6410 C   0  0  0  0  0  0  0  0  0  0  0  0
  -26.5580  -13.0420   20.0190 N   0  0  0  0  0  0  0  0  0  0  0  0
  -26.1400  -11.7800   20.2900 N   0  0  0  0  0  0  0  0  0  0  0  0
  -24.0850  -10.6570   20.8580 C   0  0  0  0  0  0  0  0  0  0  0  0
  -24.4800   -9.6880   21.8050 C   0  0  0  0  0  3  0  0  0  0  0  0
  -23.7050   -8.5250   22.0080 C   0  0  0  0  0  3  0  0  0  0  0  0
  -22.5180   -8.3260   21.2620 C   0  0  0  0  0  0  0  0  0  0  0  0
  -22.1420   -9.2830   20.3040 C   0  0  0  0  0  3  0  0  0  0  0  0
  -22.9180  -10.4360   20.1000 C   0  0  0  0  0  3  0  0  0  0  0  0
  -21.7150   -7.2170   21.3740 O   0  0  0  0  0  0  0  0  0  0  0  0
  -21.6030   -6.5250   22.5530 C   0  0  0  0  0  0  0  0  0  0  0  0
  -21.1760   -7.1490   23.7450 C   0  0  0  0  0  3  0  0  0  0  0  0
  -21.0080   -6.3860   24.9180 C   0  0  0  0  0  3  0  0  0  0  0  0
  -21.2540   -5.0000   24.8990 C   0  0  0  0  0  0  0  0  0  0  0  0
  -21.6740   -4.3760   23.7110 C   0  0  0  0  0  3  0  0  0  0  0  0
  -21.8440   -5.1370   22.5410 C   0  0  0  0  0  0  0  0  0  0  0  0
  -22.2280   -4.5260   21.3940 F   0  0  0  0  0  0  0  0  0  0  0  0
  -21.0850   -4.2660   26.0230 F   0  0  0  0  0  0  0  0  0  0  0  0
  -23.1100  -13.8000   21.0080 C   0  0  0  0  0  0  0  0  0  0  0  0
  -22.3880  -13.1480   21.9130 N   0  0  0  0  0  0  0  0  0  0  0  0
  -22.6980  -14.8370   20.4910 O   0  0  0  0  0  0  0  0  0  0  0  0
  -22.7360  -12.3090   22.3530 H   0  0  0  0  0  0  0  0  0  0  0  0
  -21.4750  -13.4950   22.1710 H   0  0  0  0  0  0  0  0  0  0  0  0
  -25.7920  -15.3350   20.0980 N   0  0  0  0  0  0  0  0  0  0  0  0
  -25.0680  -16.0300   20.2390 H   0  0  0  0  0  0  0  0  0  0  0  0
  -26.6600  -15.7290   19.7590 H   0  0  0  0  0  0  0  0  0  0  0  0
  1  2  1  0
  3  6  1  0
  3  7  1  0
  4  1  1  0
  4  5  1  0
  5  2  1  0
  6  4  1  0
  6  8  1  0
  7  5  1  0
  7 57  1  0
  8 10  2  0
  9  8  1  0
  9 12  1  0
 11  9  1  0
 12 13  1  0
 14 16  1  0
 14 13  1  0
 15 26  2  0
 16 21  1  0
 17 25  1  0
 17 27  1  0
 18 24  1  0
 18 20  1  0
 19 25  1  0
 20 19  1  0
 21 20  2  0
 22 23  1  0
 22 16  2  0
 23 18  2  0
 24 17  1  0
 25 15  1  0
 27 29  2  0
 28 27  1  0
 30 28  1  0
 31 40  2  0
 31 36  1  0
 32 28  1  0
 32 36  1  0
 33 32  1  0
 34 35  1  0
 34 33  1  0
 35 31  1  0
 36 37  2  0
 37 38  1  0
 39 38  2  0
 40 39  1  0
 41 15  1  0
 41 42  1  0
 41 51  1  0
 42 45  1  0
 43 47  1  0
 43 42  1  0
 44 43  2  0
 47 46  1  0
 49 47  1  0
 49 50  1  0
 49 48  1  0
 51 54  1  1
 51 52  1  0
 53 51  1  0
 55 56  1  0
 57 55  2  0
 58 59  1  0
 58 55  1  0
 60 59  1  0
 61 66  1  0
 62 63  1  0
 62 61  1  0
 64 63  1  0
 64 71  1  0
 64 65  1  0
 66 60  1  0
 66 65  1  0
 67 60  2  0
 68 69  2  0
 69 88  1  0
 70 69  1  0
 70 73  1  0
 71 68  1  0
 71 72  1  0
 72 70  2  0
 73 74  1  0
 74 75  2  0
 76 79  1  0
 76 75  1  0
 77 76  2  0
 78 77  1  0
 78 73  2  0
 79 80  1  0
 80 81  1  0
 81 82  2  0
 83 82  1  0
 83 87  1  0
 84 83  2  0
 85 80  2  0
 85 84  1  0
 86 85  1  0
 88 89  1  0
 89 92  1  0
 89 91  1  0
 90 88  2  0
 93 94  1  0
 93 68  1  0
 95 93  1  0
M  ISO  4  13 101  14 101  59 100  60 100
M  END
>  <TORSDO>  (64) 
F 22

>  <SCORE>  (64) 
-12.497

>  <name>  (64) 
63

>  <ligand_id>  (64) 
63

>  <original_smiles>  (64) 
[H]C1=C([H])C2([H])C([H])(C(=O)N([H])C([H])([H])C([H])([H])Oc3c([H])c([H])c4c(c3[H])C([H])([H])N(C(=O)C([H])(N([H])C(=O)C([H])(N([H])C([H])([H])[H])C([H])([H])[H])C(C([H])([H])[H])(C([H])([H])[H])C([H])([H])[H])C([H])(C(=O)N([H])C3([H])c5c([H])c([H])c([H])c([H])c5C([H])([H])C([H])([H])C3([H])[H])C4([H])[H])C([H])([H])C([H])(N=C(C([H])([H])[H])C([H])([H])C([H])([H])C(=O)N3C([H])([H])C([H])([H])C([H])([H])C([H])(n4nc(-c5c([H])c([H])c(Oc6c([H])c([H])c(F)c([H])c6F)c([H])c5[H])c(C(=O)N([H])[H])c4N([H])[H])C3([H])[H])C12[H]

>  <smiles>  (64) 
[H]C1=C([H])C2([H])C([H])(C(=O)N([H])C([H])([H])C([H])([H])Oc3c([H])c([H])c4c(c3[H])C([H])([H])N(C(=O)C([H])(N([H])C(=O)C([H])(N([H])C([H])([H])[H])C([H])([H])[H])C(C([H])([H])[H])(C([H])([H])[H])C([H])([H])[H])C([H])(C(=O)N([H])C3([H])c5c([H])c([H])c([H])c([H])c5C([H])([H])C([H])([H])C3([H])[H])C4([H])[H])C([H])([H])C([H])(N=C(C([H])([H])[H])C([H])([H])C([H])([H])C(=O)N3C([H])([H])C([H])([H])C([H])([H])C([H])(n4nc(-c5c([H])c([H])c(Oc6c([H])c([H])c(F)c([H])c6F)c([H])c5[H])c(C(=O)N([H])[H])c4N([H])[H])C3([H])[H])C12[H]

$$$$
64:0:0
     RDKit          3D

 96104  0  0  1  0  0  0  0  0999 V2000
  -31.1790  -23.3910   19.7490 C   0  0  0  0  0  3  0  0  0  0  0  0
  -30.4890  -24.5250   20.2210 C   0  0  0  0  0  3  0  0  0  0  0  0
  -29.1220  -22.1000   19.8620 C   0  0  0  0  0  3  0  0  0  0  0  0
  -30.5050  -22.1620   19.5700 C   0  0  0  0  0  0  0  0  0  0  0  0
  -29.1140  -24.4570   20.5220 C   0  0  0  0  0  0  0  0  0  0  0  0
  -28.4210  -23.2340   20.3280 C   0  0  0  0  0  0  0  0  0  0  0  0
  -26.9340  -23.0960   20.6110 C   0  0  0  0  0  1  0  0  0  0  0  0
  -31.2800  -20.9680   19.1010 C   0  0  0  0  0  0  0  0  0  0  0  0
  -32.5180  -20.9430   19.1300 O   0  0  0  0  0  0  0  0  0  0  0  0
  -30.5180  -19.7270   18.5520 C   0  0  0  0  0  0  0  0  0  0  0  0
  -30.9430  -18.5840   19.1070 N   0  0  0  0  0  0  0  0  0  0  0  0
  -29.6540  -19.7900   17.6690 O   0  0  0  0  0  0  0  0  0  0  0  0
  -31.6930  -18.6780   19.7820 H   0  0  0  0  0  0  0  0  0  0  0  0
  -30.5960  -17.2440   18.6470 C   0  0  0  0  0  2  0  0  0  0  0  0
  -29.2840  -16.6840   19.2480 C   0  0  0  0  0  2  0  0  0  0  0  0
  -29.2280  -16.4470   20.7830 C   0  0  0  0  0  2  0  0  0  0  0  0
  -30.7370  -14.4690   20.6750 C   0  0  0  0  0  0  0  0  0  0  0  0
  -30.3830  -12.3560   19.4700 C   0  0  0  0  0  2  0  0  0  0  0  0
  -29.4790  -12.5780   18.2430 C   0  0  0  0  0  2  0  0  0  0  0  0
  -27.9970  -12.4380   18.6360 C   0  0  0  0  0  2  0  0  0  0  0  0
  -27.6250  -13.2710   19.8920 C   0  0  0  0  0  3  0  0  0  0  0  0
  -28.6550  -13.0710   21.0260 C   0  0  0  0  0  2  0  0  0  0  0  0
  -29.9970  -13.3450   20.4860 N   0  0  0  0  0  0  0  0  0  0  0  0
  -31.8770  -14.6090   20.2350 O   0  0  0  0  0  0  0  0  0  0  0  0
  -30.1820  -15.4810   21.3480 N   0  0  0  0  0  0  0  0  0  0  0  0
  -30.8920  -15.9720   21.8730 H   0  0  0  0  0  0  0  0  0  0  0  0
  -25.2040  -13.8710   20.5200 C   0  0  0  0  0  0  0  0  0  0  0  0
  -24.1300  -13.0970   20.8640 C   0  0  0  0  0  0  0  0  0  0  0  0
  -24.6020  -11.7480   20.8700 C   0  0  0  0  0  0  0  0  0  0  0  0
  -26.2620  -12.9950   20.3360 N   0  0  0  0  0  0  0  0  0  0  0  0
  -25.9010  -11.7130   20.6040 N   0  0  0  0  0  0  0  0  0  0  0  0
  -23.8800  -10.4840   21.0530 C   0  0  0  0  0  0  0  0  0  0  0  0
  -24.3010   -9.5260   22.0020 C   0  0  0  0  0  3  0  0  0  0  0  0
  -23.5790   -8.3260   22.1740 C   0  0  0  0  0  3  0  0  0  0  0  0
  -22.4220   -8.0750   21.3980 C   0  0  0  0  0  0  0  0  0  0  0  0
  -22.0210   -9.0220   20.4400 C   0  0  0  0  0  3  0  0  0  0  0  0
  -22.7440  -10.2140   20.2650 C   0  0  0  0  0  3  0  0  0  0  0  0
  -21.6750   -6.9250   21.4790 O   0  0  0  0  0  0  0  0  0  0  0  0
  -21.6220   -6.1800   22.6300 C   0  0  0  0  0  0  0  0  0  0  0  0
  -21.1970   -6.7340   23.8570 C   0  0  0  0  0  3  0  0  0  0  0  0
  -21.0900   -5.9170   25.0000 C   0  0  0  0  0  3  0  0  0  0  0  0
  -21.4000   -4.5470   24.9170 C   0  0  0  0  0  0  0  0  0  0  0  0
  -21.8190   -3.9910   23.6960 C   0  0  0  0  0  3  0  0  0  0  0  0
  -21.9280   -4.8060   22.5550 C   0  0  0  0  0  0  0  0  0  0  0  0
  -22.3120   -4.2630   21.3750 F   0  0  0  0  0  0  0  0  0  0  0  0
  -21.2900   -3.7590   26.0130 F   0  0  0  0  0  0  0  0  0  0  0  0
  -22.7220  -13.5680   21.0820 C   0  0  0  0  0  0  0  0  0  0  0  0
  -21.9700  -12.8790   21.9340 N   0  0  0  0  0  0  0  0  0  0  0  0
  -22.2920  -14.5820   20.5320 O   0  0  0  0  0  0  0  0  0  0  0  0
  -22.3290  -12.0620   22.4040 H   0  0  0  0  0  0  0  0  0  0  0  0
  -21.0240  -13.1780   22.1230 H   0  0  0  0  0  0  0  0  0  0  0  0
  -25.3610  -15.2410   20.3260 N   0  0  0  0  0  0  0  0  0  0  0  0
  -24.5870  -15.8900   20.4090 H   0  0  0  0  0  0  0  0  0  0  0  0
  -26.2200  -15.6840   20.0290 H   0  0  0  0  0  0  0  0  0  0  0  0
  -28.4370  -25.7020   21.0790 C   0  0  0  0  0  2  0  0  0  0  0  0
  -28.4260  -26.7720   20.1390 O   0  0  0  0  0  0  0  0  0  0  0  0
  -24.6270  -31.9140   23.2570 C   0  0  0  0  0  0  0  0  0  0  0  0
  -27.2660  -27.4990   20.1620 C   0  0  0  0  0  0  0  0  0  0  0  0
  -23.4140  -30.5030   21.6260 C   0  0  0  0  0  3  0  0  0  0  0  0
  -24.8640  -28.9700   20.1970 C   0  0  0  0  0  0  0  0  0  0  0  0
  -25.9360  -30.8720   21.4170 C   0  0  0  0  0  2  0  0  0  0  0  0
  -26.0220  -29.5050   20.7760 C   0  0  0  0  0  0  0  0  0  0  0  0
  -27.2290  -28.7770   20.7580 C   0  0  0  0  0  3  0  0  0  0  0  0
  -26.0980  -26.9670   19.5810 C   0  0  0  0  0  3  0  0  0  0  0  0
  -24.8940  -27.6960   19.5980 C   0  0  0  0  0  3  0  0  0  0  0  0
  -23.6170  -29.8220   20.2470 C   0  0  0  0  0  2  0  0  0  0  0  0
  -24.6770  -31.1070   22.1610 N   0  0  0  0  0  0  0  0  0  0  0  0
  -23.5430  -32.2070   23.7830 O   0  0  0  0  0  0  0  0  0  0  0  0
  -22.7690  -29.4820   22.5900 C   0  0  0  0  0  0  0  0  0  0  0  0
  -21.4480  -29.2880   22.4570 N   0  0  0  0  0  0  0  0  0  0  0  0
  -23.4560  -28.8660   23.4090 O   0  0  0  0  0  0  0  0  0  0  0  0
  -20.9560  -29.8380   21.7660 H   0  0  0  0  0  0  0  0  0  0  0  0
  -18.0840  -28.0570   22.9270 C   0  0  0  0  0  0  0  0  0  0  0  0
  -20.6350  -28.3470   23.2260 C   0  0  0  0  0  3  0  0  0  0  0  0
  -20.7610  -26.9120   22.6640 C   0  0  0  0  0  2  0  0  0  0  0  0
  -19.6750  -26.5680   21.6400 C   0  0  0  0  0  2  0  0  0  0  0  0
  -18.2840  -26.7030   22.2680 C   0  0  0  0  0  2  0  0  0  0  0  0
  -19.1880  -28.8350   23.3630 C   0  0  0  0  0  0  0  0  0  0  0  0
  -18.9480  -30.1020   23.9390 C   0  0  0  0  0  3  0  0  0  0  0  0
  -17.6370  -30.5910   24.0820 C   0  0  0  0  0  3  0  0  0  0  0  0
  -16.5460  -29.8090   23.6640 C   0  0  0  0  0  3  0  0  0  0  0  0
  -16.7700  -28.5440   23.0920 C   0  0  0  0  0  3  0  0  0  0  0  0
  -25.9170  -32.5350   23.8800 C   0  0  0  0  0  3  0  0  0  0  0  0
  -25.6190  -33.9340   24.2070 N   0  0  0  0  0  0  0  0  0  0  0  0
  -25.9550  -34.9810   23.4420 C   0  0  0  0  0  0  0  0  0  0  0  0
  -26.6240  -34.8690   22.4110 O   0  0  0  0  0  0  0  0  0  0  0  0
  -25.0260  -34.0950   25.0080 H   0  0  0  0  0  0  0  0  0  0  0  0
  -24.2340  -36.7770   23.0730 C   0  0  0  0  0  1  0  0  0  0  0  0
  -25.4710  -36.3720   23.8910 C   0  0  0  0  0  3  0  0  0  0  0  0
  -27.6080  -37.2510   24.7200 C   0  0  0  0  0  1  0  0  0  0  0  0
  -26.5080  -37.4200   23.7760 N   0  0  0  0  0  0  0  0  0  0  0  0
  -26.1060  -38.3430   23.9190 H   0  0  0  0  0  0  0  0  0  0  0  0
  -26.4360  -31.7610   25.1530 C   0  0  1  0  0  0  0  0  0  0  0  0
  -25.3460  -31.5280   26.2240 C   0  0  0  0  0  1  0  0  0  0  0  0
  -27.0130  -30.3810   24.7580 C   0  0  0  0  0  1  0  0  0  0  0  0
  -27.5930  -32.5500   25.8110 C   0  0  0  0  0  1  0  0  0  0  0  0
  1  2  1  0
  2  5  2  0
  3  6  2  0
  4  1  2  0
  4  3  1  0
  5 55  1  0
  6  5  1  0
  6  7  1  0
  8  9  2  0
  8  4  1  0
 10  8  1  0
 10 11  1  0
 11 13  1  0
 12 10  2  0
 14 11  1  0
 14 15  1  0
 15 16  1  0
 16 25  1  0
 17 25  1  0
 18 23  1  0
 19 20  1  0
 19 18  1  0
 21 20  1  0
 21 30  1  0
 21 22  1  0
 23 17  1  0
 23 22  1  0
 24 17  2  0
 25 26  1  0
 27 28  2  0
 28 29  1  0
 28 47  1  0
 29 32  1  0
 30 27  1  0
 30 31  1  0
 31 29  2  0
 32 33  1  0
 33 34  2  0
 35 38  1  0
 35 34  1  0
 36 35  2  0
 37 36  1  0
 37 32  2  0
 38 39  1  0
 39 40  1  0
 40 41  2  0
 42 41  1  0
 42 46  1  0
 43 42  2  0
 44 39  2  0
 44 43  1  0
 45 44  1  0
 47 48  1  0
 48 51  1  0
 48 50  1  0
 49 47  2  0
 52 53  1  0
 52 27  1  0
 54 52  1  0
 56 58  1  0
 56 55  1  0
 57 68  2  0
 58 63  1  0
 59 67  1  0
 59 69  1  0
 60 66  1  0
 60 62  1  0
 61 67  1  0
 62 61  1  0
 63 62  2  0
 64 65  1  0
 64 58  2  0
 65 60  2  0
 66 59  1  0
 67 57  1  0
 69 71  2  0
 70 69  1  0
 72 70  1  0
 73 82  2  0
 73 78  1  0
 74 70  1  0
 74 78  1  0
 75 74  1  0
 76 77  1  0
 76 75  1  0
 77 73  1  0
 78 79  2  0
 79 80  1  0
 81 80  2  0
 82 81  1  0
 83 57  1  0
 83 84  1  0
 83 93  1  0
 84 87  1  0
 85 89  1  0
 85 84  1  0
 86 85  2  0
 89 88  1  0
 91 89  1  0
 91 92  1  0
 91 90  1  0
 93 96  1  1
 93 94  1  0
 95 93  1  0
M  ISO  4  17 100  25 100  55 101  56 101
M  END
>  <TORSDO>  (65) 
F 22

>  <SCORE>  (65) 
-13.301

>  <name>  (65) 
64

>  <ligand_id>  (65) 
64

>  <original_smiles>  (65) 
[H]c1c([H])c([H])c2c(c1[H])C([H])([H])C([H])([H])C([H])([H])C2([H])N([H])C(=O)C1([H])N(C(=O)C([H])(N([H])C(=O)C([H])(N([H])C([H])([H])[H])C([H])([H])[H])C(C([H])([H])[H])(C([H])([H])[H])C([H])([H])[H])C([H])([H])c2c([H])c(OC([H])([H])c3c([H])c([H])c(C(=O)C(=O)N([H])C([H])([H])C([H])([H])C([H])([H])N([H])C(=O)N4C([H])([H])C([H])([H])C([H])([H])C([H])(n5nc(-c6c([H])c([H])c(Oc7c([H])c([H])c(F)c([H])c7F)c([H])c6[H])c(C(=O)N([H])[H])c5N([H])[H])C4([H])[H])c([H])c3C([H])([H])[H])c([H])c([H])c2C1([H])[H]

>  <smiles>  (65) 
[H]c1c([H])c([H])c2c(c1[H])C([H])([H])C([H])([H])C([H])([H])C2([H])N([H])C(=O)C1([H])N(C(=O)C([H])(N([H])C(=O)C([H])(N([H])C([H])([H])[H])C([H])([H])[H])C(C([H])([H])[H])(C([H])([H])[H])C([H])([H])[H])C([H])([H])c2c([H])c(OC([H])([H])c3c([H])c([H])c(C(=O)C(=O)N([H])C([H])([H])C([H])([H])C([H])([H])N([H])C(=O)N4C([H])([H])C([H])([H])C([H])([H])C([H])(n5nc(-c6c([H])c([H])c(Oc7c([H])c([H])c(F)c([H])c7F)c([H])c6[H])c(C(=O)N([H])[H])c5N([H])[H])C4([H])[H])c([H])c3C([H])([H])[H])c([H])c([H])c2C1([H])[H]

$$$$
65:0:0
     RDKit          3D

 92101  0  0  1  0  0  0  0  0999 V2000
  -29.6160  -21.4520   20.1480 N   0  0  0  0  0  4  0  0  0  0  0  0
  -28.9630  -21.1670   19.4360 H   0  0  0  0  0  0  0  0  0  0  0  0
  -30.4520  -21.7490   19.6720 H   0  0  0  0  0  0  0  0  0  0  0  0
  -28.9650  -16.8030   20.2280 C   0  0  0  0  0  2  0  0  0  0  0  0
  -29.5620  -18.0000   19.4380 C   0  0  0  0  0  2  0  0  0  0  0  0
  -31.9520  -19.2260   22.1420 C   0  0  0  0  0  2  0  0  0  0  0  0
  -31.1520  -20.5250   21.9210 C   0  0  0  0  0  2  0  0  0  0  0  0
  -30.8260  -16.9380   21.9030 C   0  0  0  0  0  2  0  0  0  0  0  0
  -29.9260  -15.9440   21.1100 C   0  0  0  0  0  3  0  0  0  0  0  0
  -31.4410  -18.1640   21.1480 C   0  0  0  0  0  3  0  0  0  0  0  0
  -30.5080  -18.9640   20.2020 C   0  0  0  0  0  3  0  0  0  0  0  0
  -29.9650  -20.2270   20.9790 C   0  0  0  0  0  3  0  0  0  0  0  0
  -30.6150  -14.6730   20.4490 C   0  0  0  0  0  0  0  0  0  0  0  0
  -30.3810  -12.4550   19.3280 C   0  0  0  0  0  2  0  0  0  0  0  0
  -29.4320  -12.5880   18.1160 C   0  0  0  0  0  2  0  0  0  0  0  0
  -27.9600  -12.4140   18.5420 C   0  0  0  0  0  2  0  0  0  0  0  0
  -27.6030  -13.2660   19.7870 C   0  0  0  0  0  3  0  0  0  0  0  0
  -28.6640  -13.1000   20.8970 C   0  0  0  0  0  2  0  0  0  0  0  0
  -29.9770  -13.4610   20.3350 N   0  0  0  0  0  0  0  0  0  0  0  0
  -31.7460  -14.8190   19.9740 O   0  0  0  0  0  0  0  0  0  0  0  0
  -25.2150  -13.8860   20.5050 C   0  0  0  0  0  0  0  0  0  0  0  0
  -24.1430  -13.1180   20.8740 C   0  0  0  0  0  0  0  0  0  0  0  0
  -24.5990  -11.7650   20.8420 C   0  0  0  0  0  0  0  0  0  0  0  0
  -26.2530  -12.9980   20.2710 N   0  0  0  0  0  0  0  0  0  0  0  0
  -25.8890  -11.7190   20.5340 N   0  0  0  0  0  0  0  0  0  0  0  0
  -23.8690  -10.5060   21.0310 C   0  0  0  0  0  0  0  0  0  0  0  0
  -24.2930   -9.5420   21.9720 C   0  0  0  0  0  3  0  0  0  0  0  0
  -23.5660   -8.3460   22.1490 C   0  0  0  0  0  3  0  0  0  0  0  0
  -22.4000   -8.1060   21.3820 C   0  0  0  0  0  0  0  0  0  0  0  0
  -21.9960   -9.0590   20.4300 C   0  0  0  0  0  3  0  0  0  0  0  0
  -22.7240  -10.2460   20.2520 C   0  0  0  0  0  3  0  0  0  0  0  0
  -21.6440   -6.9610   21.4670 O   0  0  0  0  0  0  0  0  0  0  0  0
  -21.5780   -6.2280   22.6240 C   0  0  0  0  0  0  0  0  0  0  0  0
  -21.1190   -6.7880   23.8370 C   0  0  0  0  0  3  0  0  0  0  0  0
  -21.0010   -5.9800   24.9850 C   0  0  0  0  0  3  0  0  0  0  0  0
  -21.3320   -4.6130   24.9220 C   0  0  0  0  0  0  0  0  0  0  0  0
  -21.7830   -4.0520   23.7140 C   0  0  0  0  0  3  0  0  0  0  0  0
  -21.9030   -4.8580   22.5680 C   0  0  0  0  0  0  0  0  0  0  0  0
  -22.3190   -4.3080   21.4020 F   0  0  0  0  0  0  0  0  0  0  0  0
  -21.2100   -3.8350   26.0220 F   0  0  0  0  0  0  0  0  0  0  0  0
  -22.7470  -13.6010   21.1450 C   0  0  0  0  0  0  0  0  0  0  0  0
  -22.0140  -12.9020   22.0050 N   0  0  0  0  0  0  0  0  0  0  0  0
  -22.3150  -14.6320   20.6310 O   0  0  0  0  0  0  0  0  0  0  0  0
  -22.3750  -12.0660   22.4410 H   0  0  0  0  0  0  0  0  0  0  0  0
  -21.0770  -13.2060   22.2280 H   0  0  0  0  0  0  0  0  0  0  0  0
  -25.3860  -15.2560   20.3290 N   0  0  0  0  0  0  0  0  0  0  0  0
  -24.6250  -15.9170   20.4450 H   0  0  0  0  0  0  0  0  0  0  0  0
  -26.2450  -15.6910   20.0160 H   0  0  0  0  0  0  0  0  0  0  0  0
  -29.0170  -22.6500   20.8600 C   0  0  0  0  0  2  0  0  0  0  0  0
  -29.0000  -24.0330   20.0720 C   0  0  0  0  0  3  0  0  0  0  0  0
  -28.2350  -25.2340   20.7680 C   0  0  0  0  0  3  0  0  0  0  0  0
  -28.3770  -26.5850   20.2010 O   0  0  0  0  0  0  0  0  0  0  0  0
  -24.5630  -31.9000   23.2230 C   0  0  0  0  0  0  0  0  0  0  0  0
  -27.2390  -27.3930   20.1870 C   0  0  0  0  0  0  0  0  0  0  0  0
  -23.3830  -30.4960   21.5690 C   0  0  0  0  0  3  0  0  0  0  0  0
  -24.8570  -28.9580   20.1540 C   0  0  0  0  0  0  0  0  0  0  0  0
  -25.9190  -30.8350   21.4130 C   0  0  0  0  0  2  0  0  0  0  0  0
  -26.0140  -29.4620   20.7650 C   0  0  0  0  0  0  0  0  0  0  0  0
  -27.2100  -28.6920   20.7680 C   0  0  0  0  0  3  0  0  0  0  0  0
  -26.0650  -26.9270   19.5580 C   0  0  0  0  0  3  0  0  0  0  0  0
  -24.8820  -27.6940   19.5430 C   0  0  0  0  0  3  0  0  0  0  0  0
  -23.6140  -29.8230   20.1900 C   0  0  0  0  0  2  0  0  0  0  0  0
  -24.6400  -31.0890   22.1290 N   0  0  0  0  0  0  0  0  0  0  0  0
  -23.4700  -32.1950   23.7230 O   0  0  0  0  0  0  0  0  0  0  0  0
  -22.7140  -29.4720   22.5160 C   0  0  0  0  0  0  0  0  0  0  0  0
  -21.3900  -29.2920   22.3720 N   0  0  0  0  0  0  0  0  0  0  0  0
  -23.3850  -28.8430   23.3390 O   0  0  0  0  0  0  0  0  0  0  0  0
  -20.9080  -29.8510   21.6830 H   0  0  0  0  0  0  0  0  0  0  0  0
  -18.0070  -28.1000   22.8320 C   0  0  0  0  0  0  0  0  0  0  0  0
  -20.5640  -28.3480   23.1270 C   0  0  0  0  0  3  0  0  0  0  0  0
  -20.6670  -26.9220   22.5360 C   0  0  0  0  0  2  0  0  0  0  0  0
  -19.5730  -26.6140   21.5090 C   0  0  0  0  0  2  0  0  0  0  0  0
  -18.1850  -26.7570   22.1430 C   0  0  0  0  0  2  0  0  0  0  0  0
  -19.1250  -28.8530   23.2790 C   0  0  0  0  0  0  0  0  0  0  0  0
  -18.9050  -30.1120   23.8820 C   0  0  0  0  0  3  0  0  0  0  0  0
  -17.6000  -30.6150   24.0430 C   0  0  0  0  0  3  0  0  0  0  0  0
  -16.4970  -29.8580   23.6110 C   0  0  0  0  0  3  0  0  0  0  0  0
  -16.7010  -28.6020   23.0120 C   0  0  0  0  0  3  0  0  0  0  0  0
  -25.8400  -32.5200   23.8740 C   0  0  0  0  0  3  0  0  0  0  0  0
  -26.3300  -31.7470   25.1600 C   0  0  1  0  0  0  0  0  0  0  0  0
  -25.2150  -31.5130   26.2050 C   0  0  0  0  0  1  0  0  0  0  0  0
  -26.9170  -30.3680   24.7770 C   0  0  0  0  0  1  0  0  0  0  0  0
  -27.4690  -32.5380   25.8440 C   0  0  0  0  0  1  0  0  0  0  0  0
  -25.5320  -33.9190   24.2000 N   0  0  0  0  0  0  0  0  0  0  0  0
  -25.8710  -34.9700   23.4400 C   0  0  0  0  0  0  0  0  0  0  0  0
  -26.5490  -34.8620   22.4130 O   0  0  0  0  0  0  0  0  0  0  0  0
  -24.9330  -34.0790   24.9960 H   0  0  0  0  0  0  0  0  0  0  0  0
  -24.1460  -36.7600   23.0660 C   0  0  0  0  0  1  0  0  0  0  0  0
  -25.3820  -36.3600   23.8880 C   0  0  0  0  0  3  0  0  0  0  0  0
  -27.5100  -37.2470   24.7300 C   0  0  0  0  0  1  0  0  0  0  0  0
  -26.4160  -37.4110   23.7760 N   0  0  0  0  0  0  0  0  0  0  0  0
  -26.0100  -38.3320   23.9160 H   0  0  0  0  0  0  0  0  0  0  0  0
  1 49  1  0
  2  1  1  0
  3  1  1  0
  4  9  1  0
  5  4  1  0
  7  6  1  0
  9 13  1  0
  9  8  1  0
 10  8  1  0
 10  6  1  0
 11  5  1  0
 11 12  1  0
 11 10  1  0
 12  1  1  0
 12  7  1  0
 14 19  1  0
 15 16  1  0
 15 14  1  0
 17 16  1  0
 17 24  1  0
 17 18  1  0
 19 13  1  0
 19 18  1  0
 20 13  2  0
 21 22  2  0
 22 41  1  0
 23 22  1  0
 23 26  1  0
 24 21  1  0
 24 25  1  0
 25 23  2  0
 26 27  1  0
 27 28  2  0
 29 32  1  0
 29 28  1  0
 30 29  2  0
 31 30  1  0
 31 26  2  0
 32 33  1  0
 33 34  1  0
 34 35  2  0
 36 35  1  0
 36 40  1  0
 37 36  2  0
 38 33  2  0
 38 37  1  0
 39 38  1  0
 41 42  1  0
 42 45  1  0
 42 44  1  0
 43 41  2  0
 46 47  1  0
 46 21  1  0
 48 46  1  0
 50 51  2  0
 50 49  1  0
 52 51  1  0
 53 64  2  0
 54 52  1  0
 54 59  1  0
 55 63  1  0
 55 65  1  0
 56 62  1  0
 56 58  1  0
 57 63  1  0
 58 59  2  0
 58 57  1  0
 60 54  2  0
 61 60  1  0
 61 56  2  0
 62 55  1  0
 63 53  1  0
 65 67  2  0
 66 65  1  0
 68 66  1  0
 69 78  2  0
 69 74  1  0
 70 66  1  0
 70 74  1  0
 71 70  1  0
 72 73  1  0
 72 71  1  0
 73 69  1  0
 74 75  2  0
 75 76  1  0
 77 76  2  0
 78 77  1  0
 79 53  1  0
 79 84  1  0
 79 80  1  0
 80 83  1  1
 80 81  1  0
 82 80  1  0
 84 87  1  0
 85 89  1  0
 85 84  1  0
 86 85  2  0
 89 88  1  0
 91 89  1  0
 91 92  1  0
 91 90  1  0
M  ISO  4   9 100  13 100  51 101  52 101
M  END
>  <TORSDO>  (66) 
F 20

>  <SCORE>  (66) 
-14.242

>  <name>  (66) 
65

>  <ligand_id>  (66) 
65

>  <original_smiles>  (66) 
[H]c1c([H])c([H])c2c(c1[H])C([H])([H])C([H])([H])C([H])([H])C2([H])N([H])C(=O)C1([H])N(C(=O)C([H])(N([H])C(=O)C([H])(N([H])C([H])([H])[H])C([H])([H])[H])C(C([H])([H])[H])(C([H])([H])[H])C([H])([H])[H])C([H])([H])c2c([H])c(OC([H])([H])C([H])([H])C([H])([H])[N+]([H])([H])C3([H])C([H])([H])C([H])([H])C4([H])C([H])([H])C([H])(C(=O)N5C([H])([H])C([H])([H])C([H])([H])C([H])(n6nc(-c7c([H])c([H])c(Oc8c([H])c([H])c(F)c([H])c8F)c([H])c7[H])c(C(=O)N([H])[H])c6N([H])[H])C5([H])[H])C([H])([H])C([H])([H])C43[H])c([H])c([H])c2C1([H])[H]

>  <smiles>  (66) 
[H]c1c([H])c([H])c2c(c1[H])C([H])([H])C([H])([H])C([H])([H])C2([H])N([H])C(=O)C1([H])N(C(=O)C([H])(N([H])C(=O)C([H])(N([H])C([H])([H])[H])C([H])([H])[H])C(C([H])([H])[H])(C([H])([H])[H])C([H])([H])[H])C([H])([H])c2c([H])c(OC([H])([H])C([H])([H])C([H])([H])[N+]([H])([H])C3([H])C([H])([H])C([H])([H])C4([H])C([H])([H])C([H])(C(=O)N5C([H])([H])C([H])([H])C([H])([H])C([H])(n6nc(-c7c([H])c([H])c(Oc8c([H])c([H])c(F)c([H])c8F)c([H])c7[H])c(C(=O)N([H])[H])c6N([H])[H])C5([H])[H])C([H])([H])C([H])([H])C43[H])c([H])c([H])c2C1([H])[H]

$$$$
66:0:0
     RDKit          3D

 95103  0  0  1  0  0  0  0  0999 V2000
  -32.3820  -23.6420   19.6490 C   0  0  0  0  0  1  0  0  0  0  0  0
  -31.2260  -23.4380   20.6400 C   0  0  0  0  0  3  0  0  0  0  0  0
  -30.6740  -19.7690   21.7080 C   0  0  0  0  0  3  0  0  0  0  0  0
  -29.8890  -20.0160   19.4250 C   0  0  0  0  0  3  0  0  0  0  0  0
  -30.9660  -21.1510   21.7540 C   0  0  0  0  0  3  0  0  0  0  0  0
  -30.1970  -21.3950   19.4650 C   0  0  0  0  0  3  0  0  0  0  0  0
  -30.1500  -19.1750   20.5350 C   0  0  0  0  0  0  0  0  0  0  0  0
  -30.7540  -21.9760   20.6270 C   0  0  0  0  0  0  0  0  0  0  0  0
  -29.8500  -17.7060   20.4380 C   0  0  0  0  0  0  0  0  0  0  0  0
  -29.1650  -17.2280   19.5260 O   0  0  0  0  0  0  0  0  0  0  0  0
  -30.4350  -16.7640   21.5140 C   0  0  0  0  0  2  0  0  0  0  0  0
  -30.6730  -14.4660   20.5250 C   0  0  0  0  0  0  0  0  0  0  0  0
  -30.3670  -12.3560   19.2750 C   0  0  0  0  0  2  0  0  0  0  0  0
  -29.4150  -12.5910   18.0840 C   0  0  0  0  0  2  0  0  0  0  0  0
  -27.9420  -12.4490   18.5200 C   0  0  0  0  0  2  0  0  0  0  0  0
  -27.6160  -13.2550   19.8040 C   0  0  0  0  0  3  0  0  0  0  0  0
  -28.6720  -12.9780   20.8970 C   0  0  0  0  0  2  0  0  0  0  0  0
  -29.9990  -13.3000   20.3410 N   0  0  0  0  0  0  0  0  0  0  0  0
  -31.7450  -14.7280   19.9700 O   0  0  0  0  0  0  0  0  0  0  0  0
  -30.0500  -15.3590   21.3060 N   0  0  0  0  0  0  0  0  0  0  0  0
  -29.1650  -15.0710   21.6930 H   0  0  0  0  0  0  0  0  0  0  0  0
  -25.2110  -13.8560   20.5020 C   0  0  0  0  0  0  0  0  0  0  0  0
  -24.1460  -13.0820   20.8760 C   0  0  0  0  0  0  0  0  0  0  0  0
  -24.6130  -11.7320   20.8530 C   0  0  0  0  0  0  0  0  0  0  0  0
  -26.2610  -12.9790   20.2790 N   0  0  0  0  0  0  0  0  0  0  0  0
  -25.9040  -11.6970   20.5460 N   0  0  0  0  0  0  0  0  0  0  0  0
  -23.8930  -10.4670   21.0510 C   0  0  0  0  0  0  0  0  0  0  0  0
  -24.3350   -9.5040   21.9840 C   0  0  0  0  0  3  0  0  0  0  0  0
  -23.6170   -8.3030   22.1690 C   0  0  0  0  0  3  0  0  0  0  0  0
  -22.4430   -8.0560   21.4210 C   0  0  0  0  0  0  0  0  0  0  0  0
  -22.0190   -9.0070   20.4750 C   0  0  0  0  0  3  0  0  0  0  0  0
  -22.7390  -10.2000   20.2890 C   0  0  0  0  0  3  0  0  0  0  0  0
  -21.6950   -6.9070   21.5140 O   0  0  0  0  0  0  0  0  0  0  0  0
  -21.6620   -6.1620   22.6650 C   0  0  0  0  0  0  0  0  0  0  0  0
  -21.2460   -6.7120   23.8970 C   0  0  0  0  0  3  0  0  0  0  0  0
  -21.1600   -5.8940   25.0410 C   0  0  0  0  0  3  0  0  0  0  0  0
  -21.4800   -4.5260   24.9540 C   0  0  0  0  0  0  0  0  0  0  0  0
  -21.8900   -3.9750   23.7270 C   0  0  0  0  0  3  0  0  0  0  0  0
  -21.9770   -4.7910   22.5850 C   0  0  0  0  0  0  0  0  0  0  0  0
  -22.3520   -4.2500   21.4000 F   0  0  0  0  0  0  0  0  0  0  0  0
  -21.3910   -3.7360   26.0500 F   0  0  0  0  0  0  0  0  0  0  0  0
  -22.7450  -13.5530   21.1460 C   0  0  0  0  0  0  0  0  0  0  0  0
  -22.0200  -12.8560   22.0140 N   0  0  0  0  0  0  0  0  0  0  0  0
  -22.3020  -14.5740   20.6220 O   0  0  0  0  0  0  0  0  0  0  0  0
  -22.3890  -12.0280   22.4580 H   0  0  0  0  0  0  0  0  0  0  0  0
  -21.0810  -13.1530   22.2360 H   0  0  0  0  0  0  0  0  0  0  0  0
  -25.3700  -15.2260   20.3140 N   0  0  0  0  0  0  0  0  0  0  0  0
  -24.6030  -15.8820   20.4120 H   0  0  0  0  0  0  0  0  0  0  0  0
  -26.2180  -15.6590   19.9660 H   0  0  0  0  0  0  0  0  0  0  0  0
  -30.1450  -24.4210   20.3740 N   0  0  0  0  0  4  0  0  0  0  0  0
  -30.5430  -25.1260   19.7740 H   0  0  0  0  0  0  0  0  0  0  0  0
  -29.4070  -23.9830   19.8470 H   0  0  0  0  0  0  0  0  0  0  0  0
  -29.5680  -25.1350   21.5460 C   0  0  0  0  0  2  0  0  0  0  0  0
  -29.2600  -26.6170   21.2360 C   0  0  0  0  0  2  0  0  0  0  0  0
  -28.4110  -26.6950   20.0900 O   0  0  0  0  0  0  0  0  0  0  0  0
  -24.6410  -31.9080   23.2630 C   0  0  0  0  0  0  0  0  0  0  0  0
  -27.2820  -27.4810   20.1680 C   0  0  0  0  0  0  0  0  0  0  0  0
  -23.4290  -30.5030   21.6290 C   0  0  0  0  0  3  0  0  0  0  0  0
  -24.8790  -28.9700   20.1950 C   0  0  0  0  0  0  0  0  0  0  0  0
  -25.9500  -30.8670   21.4190 C   0  0  0  0  0  2  0  0  0  0  0  0
  -26.0370  -29.4960   20.7840 C   0  0  0  0  0  0  0  0  0  0  0  0
  -27.2420  -28.7600   20.7750 C   0  0  0  0  0  3  0  0  0  0  0  0
  -26.1140  -26.9730   19.5660 C   0  0  0  0  0  3  0  0  0  0  0  0
  -24.9110  -27.7030   19.5860 C   0  0  0  0  0  3  0  0  0  0  0  0
  -23.6330  -29.8250   20.2470 C   0  0  0  0  0  2  0  0  0  0  0  0
  -24.6930  -31.1030   22.1650 N   0  0  0  0  0  0  0  0  0  0  0  0
  -23.5580  -32.2030   23.7870 O   0  0  0  0  0  0  0  0  0  0  0  0
  -22.7830  -29.4780   22.5890 C   0  0  0  0  0  0  0  0  0  0  0  0
  -21.4600  -29.2870   22.4580 N   0  0  0  0  0  0  0  0  0  0  0  0
  -23.4700  -28.8560   23.4040 O   0  0  0  0  0  0  0  0  0  0  0  0
  -20.9680  -29.8430   21.7740 H   0  0  0  0  0  0  0  0  0  0  0  0
  -18.0920  -28.0690   22.9390 C   0  0  0  0  0  0  0  0  0  0  0  0
  -20.6470  -28.3440   23.2260 C   0  0  0  0  0  3  0  0  0  0  0  0
  -20.7630  -26.9130   22.6510 C   0  0  0  0  0  2  0  0  0  0  0  0
  -19.6690  -26.5840   21.6310 C   0  0  0  0  0  2  0  0  0  0  0  0
  -18.2820  -26.7200   22.2670 C   0  0  0  0  0  2  0  0  0  0  0  0
  -19.2040  -28.8380   23.3760 C   0  0  0  0  0  0  0  0  0  0  0  0
  -18.9750  -30.1020   23.9620 C   0  0  0  0  0  3  0  0  0  0  0  0
  -17.6660  -30.5960   24.1200 C   0  0  0  0  0  3  0  0  0  0  0  0
  -16.5680  -29.8240   23.7010 C   0  0  0  0  0  3  0  0  0  0  0  0
  -16.7830  -28.5630   23.1160 C   0  0  0  0  0  3  0  0  0  0  0  0
  -25.9320  -32.5250   23.8870 C   0  0  0  0  0  3  0  0  0  0  0  0
  -25.6350  -33.9250   24.2160 N   0  0  0  0  0  0  0  0  0  0  0  0
  -25.9700  -34.9710   23.4480 C   0  0  0  0  0  0  0  0  0  0  0  0
  -26.6340  -34.8590   22.4140 O   0  0  0  0  0  0  0  0  0  0  0  0
  -25.0430  -34.0870   25.0170 H   0  0  0  0  0  0  0  0  0  0  0  0
  -24.2430  -36.7630   23.0910 C   0  0  0  0  0  1  0  0  0  0  0  0
  -25.4880  -36.3630   23.9000 C   0  0  0  0  0  3  0  0  0  0  0  0
  -27.6330  -37.2390   24.7100 C   0  0  0  0  0  1  0  0  0  0  0  0
  -26.5240  -37.4130   23.7770 N   0  0  0  0  0  0  0  0  0  0  0  0
  -26.1210  -38.3340   23.9320 H   0  0  0  0  0  0  0  0  0  0  0  0
  -26.4500  -31.7490   25.1610 C   0  0  1  0  0  0  0  0  0  0  0  0
  -25.3590  -31.5160   26.2310 C   0  0  0  0  0  1  0  0  0  0  0  0
  -27.0250  -30.3710   24.7620 C   0  0  0  0  0  1  0  0  0  0  0  0
  -27.6060  -32.5380   25.8220 C   0  0  0  0  0  1  0  0  0  0  0  0
  2  1  1  0
  3  5  1  0
  4  6  2  0
  4  7  1  0
  6  8  1  0
  7  3  2  0
  8  2  1  0
  8  5  2  0
  9  7  1  0
  9 11  1  0
 10  9  2  0
 12 20  1  0
 13 18  1  0
 14 15  1  0
 14 13  1  0
 16 15  1  0
 16 25  1  0
 16 17  1  0
 18 12  1  0
 18 17  1  0
 19 12  2  0
 20 11  1  0
 20 21  1  0
 22 23  2  0
 23 42  1  0
 24 23  1  0
 24 27  1  0
 25 22  1  0
 25 26  1  0
 26 24  2  0
 27 28  1  0
 28 29  2  0
 30 33  1  0
 30 29  1  0
 31 30  2  0
 32 31  1  0
 32 27  2  0
 33 34  1  0
 34 35  1  0
 35 36  2  0
 37 36  1  0
 37 41  1  0
 38 37  2  0
 39 34  2  0
 39 38  1  0
 40 39  1  0
 42 43  1  0
 43 46  1  0
 43 45  1  0
 44 42  2  0
 47 48  1  0
 47 22  1  0
 49 47  1  0
 50  2  1  0
 50 53  1  0
 51 50  1  0
 52 50  1  0
 54 53  1  0
 55 57  1  0
 55 54  1  0
 56 67  2  0
 57 62  1  0
 58 66  1  0
 58 68  1  0
 59 65  1  0
 59 61  1  0
 60 66  1  0
 61 60  1  0
 62 61  2  0
 63 64  1  0
 63 57  2  0
 64 59  2  0
 65 58  1  0
 66 56  1  0
 68 70  2  0
 69 68  1  0
 71 69  1  0
 72 81  2  0
 72 77  1  0
 73 69  1  0
 73 77  1  0
 74 73  1  0
 75 76  1  0
 75 74  1  0
 76 72  1  0
 77 78  2  0
 78 79  1  0
 80 79  2  0
 81 80  1  0
 82 56  1  0
 82 83  1  0
 82 92  1  0
 83 86  1  0
 84 88  1  0
 84 83  1  0
 85 84  2  0
 88 87  1  0
 90 88  1  0
 90 91  1  0
 90 89  1  0
 92 95  1  1
 92 93  1  0
 94 92  1  0
M  ISO  4  12 100  20 100  54 101  55 101
M  END
>  <TORSDO>  (67) 
F 22

>  <SCORE>  (67) 
-13.406

>  <name>  (67) 
66

>  <ligand_id>  (67) 
66

>  <original_smiles>  (67) 
[H]c1c([H])c([H])c2c(c1[H])C([H])([H])C([H])([H])C([H])([H])C2([H])N([H])C(=O)C1([H])N(C(=O)C([H])(N([H])C(=O)C([H])(N([H])C([H])([H])[H])C([H])([H])[H])C(C([H])([H])[H])(C([H])([H])[H])C([H])([H])[H])C([H])([H])c2c([H])c(OC([H])([H])C([H])([H])[N+]([H])([H])C([H])(c3c([H])c([H])c(C(=O)C([H])([H])N([H])C(=O)N4C([H])([H])C([H])([H])C([H])([H])C([H])(n5nc(-c6c([H])c([H])c(Oc7c([H])c([H])c(F)c([H])c7F)c([H])c6[H])c(C(=O)N([H])[H])c5N([H])[H])C4([H])[H])c([H])c3[H])C([H])([H])[H])c([H])c([H])c2C1([H])[H]

>  <smiles>  (67) 
[H]c1c([H])c([H])c2c(c1[H])C([H])([H])C([H])([H])C([H])([H])C2([H])N([H])C(=O)C1([H])N(C(=O)C([H])(N([H])C(=O)C([H])(N([H])C([H])([H])[H])C([H])([H])[H])C(C([H])([H])[H])(C([H])([H])[H])C([H])([H])[H])C([H])([H])c2c([H])c(OC([H])([H])C([H])([H])[N+]([H])([H])C([H])(c3c([H])c([H])c(C(=O)C([H])([H])N([H])C(=O)N4C([H])([H])C([H])([H])C([H])([H])C([H])(n5nc(-c6c([H])c([H])c(Oc7c([H])c([H])c(F)c([H])c7F)c([H])c6[H])c(C(=O)N([H])[H])c5N([H])[H])C4([H])[H])c([H])c3[H])C([H])([H])[H])c([H])c([H])c2C1([H])[H]

$$$$
67:0:0
     RDKit          3D

 92101  0  0  1  0  0  0  0  0999 V2000
  -31.2290  -23.8580   18.3920 C   0  0  0  0  0  3  0  0  0  0  0  0
  -31.1730  -22.4650   18.5780 C   0  0  0  0  0  3  0  0  0  0  0  0
  -30.2890  -24.6980   19.0170 C   0  0  0  0  0  3  0  0  0  0  0  0
  -30.1900  -21.8860   19.4060 C   0  0  0  0  0  0  0  0  0  0  0  0
  -29.2560  -22.7420   20.0660 C   0  0  0  0  0  0  0  0  0  0  0  0
  -29.2830  -24.1710   19.8560 C   0  0  0  0  0  0  0  0  0  0  0  0
  -28.2830  -22.0770   21.0340 C   0  0  0  0  0  2  0  0  0  0  0  0
  -30.1510  -20.3360   19.5160 C   0  0  0  0  0  2  0  0  0  0  0  0
  -28.0810  -20.5610   20.7790 C   0  0  0  0  0  2  0  0  0  0  0  0
  -29.3560  -19.7930   20.6540 N   0  0  1  0  0  4  0  0  0  0  0  0
  -29.8880  -19.9870   21.4880 H   0  0  0  0  0  0  0  0  0  0  0  0
  -28.2660  -25.1600   20.4900 C   0  0  0  0  0  2  0  0  0  0  0  0
  -28.4010  -26.5770   20.1250 O   0  0  0  0  0  0  0  0  0  0  0  0
  -24.6470  -31.8810   23.2160 C   0  0  0  0  0  0  0  0  0  0  0  0
  -27.2510  -27.3650   20.1370 C   0  0  0  0  0  0  0  0  0  0  0  0
  -23.4280  -30.4750   21.5920 C   0  0  0  0  0  3  0  0  0  0  0  0
  -24.8700  -28.9290   20.1560 C   0  0  0  0  0  0  0  0  0  0  0  0
  -25.9630  -30.8080   21.3860 C   0  0  0  0  0  2  0  0  0  0  0  0
  -26.0390  -29.4330   20.7400 C   0  0  0  0  0  0  0  0  0  0  0  0
  -27.2340  -28.6630   20.7200 C   0  0  0  0  0  3  0  0  0  0  0  0
  -26.0620  -26.9020   19.5310 C   0  0  0  0  0  3  0  0  0  0  0  0
  -24.8810  -27.6660   19.5450 C   0  0  0  0  0  3  0  0  0  0  0  0
  -23.6290  -29.7960   20.2120 C   0  0  0  0  0  2  0  0  0  0  0  0
  -24.6990  -31.0680   22.1230 N   0  0  0  0  0  0  0  0  0  0  0  0
  -23.5640  -32.1800   23.7370 O   0  0  0  0  0  0  0  0  0  0  0  0
  -22.7770  -29.4560   22.5570 C   0  0  0  0  0  0  0  0  0  0  0  0
  -21.4500  -29.2790   22.4410 N   0  0  0  0  0  0  0  0  0  0  0  0
  -23.4630  -28.8280   23.3680 O   0  0  0  0  0  0  0  0  0  0  0  0
  -20.9560  -29.8380   21.7600 H   0  0  0  0  0  0  0  0  0  0  0  0
  -18.0760  -28.0850   22.9590 C   0  0  0  0  0  0  0  0  0  0  0  0
  -20.6360  -28.3400   23.2140 C   0  0  0  0  0  3  0  0  0  0  0  0
  -20.7320  -26.9090   22.6360 C   0  0  0  0  0  2  0  0  0  0  0  0
  -19.6240  -26.5890   21.6270 C   0  0  0  0  0  2  0  0  0  0  0  0
  -18.2460  -26.7360   22.2800 C   0  0  0  0  0  2  0  0  0  0  0  0
  -19.1980  -28.8450   23.3820 C   0  0  0  0  0  0  0  0  0  0  0  0
  -18.9860  -30.1090   23.9740 C   0  0  0  0  0  3  0  0  0  0  0  0
  -17.6830  -30.6120   24.1490 C   0  0  0  0  0  3  0  0  0  0  0  0
  -16.5750  -29.8490   23.7430 C   0  0  0  0  0  3  0  0  0  0  0  0
  -16.7720  -28.5880   23.1530 C   0  0  0  0  0  3  0  0  0  0  0  0
  -25.9380  -32.5000   23.8380 C   0  0  0  0  0  3  0  0  0  0  0  0
  -26.4650  -31.7180   25.1040 C   0  0  1  0  0  0  0  0  0  0  0  0
  -25.3810  -31.4720   26.1780 C   0  0  0  0  0  1  0  0  0  0  0  0
  -27.0450  -30.3440   24.6960 C   0  0  0  0  0  1  0  0  0  0  0  0
  -27.6200  -32.5060   25.7650 C   0  0  0  0  0  1  0  0  0  0  0  0
  -25.6340  -33.8960   24.1840 N   0  0  0  0  0  0  0  0  0  0  0  0
  -25.9500  -34.9540   23.4250 C   0  0  0  0  0  0  0  0  0  0  0  0
  -26.6030  -34.8570   22.3820 O   0  0  0  0  0  0  0  0  0  0  0  0
  -25.0580  -34.0450   24.9990 H   0  0  0  0  0  0  0  0  0  0  0  0
  -24.2100  -36.7410   23.1120 C   0  0  0  0  0  1  0  0  0  0  0  0
  -25.4670  -36.3370   23.8990 C   0  0  0  0  0  3  0  0  0  0  0  0
  -27.6150  -37.2230   24.6930 C   0  0  0  0  0  1  0  0  0  0  0  0
  -26.4940  -37.3950   23.7730 N   0  0  0  0  0  0  0  0  0  0  0  0
  -26.0870  -38.3110   23.9360 H   0  0  0  0  0  0  0  0  0  0  0  0
  -29.0880  -18.3000   20.6340 C   0  0  0  0  0  2  0  0  0  0  0  0
  -30.2800  -17.2680   20.5680 C   0  0  0  0  0  2  0  0  0  0  0  0
  -29.8660  -15.8090   21.0240 C   0  0  0  0  0  2  0  0  0  0  0  0
  -30.6290  -14.5700   20.4390 C   0  0  0  0  0  0  0  0  0  0  0  0
  -30.3860  -12.3690   19.3060 C   0  0  0  0  0  2  0  0  0  0  0  0
  -29.4470  -12.5470   18.0910 C   0  0  0  0  0  2  0  0  0  0  0  0
  -27.9690  -12.4050   18.5080 C   0  0  0  0  0  2  0  0  0  0  0  0
  -27.6200  -13.2520   19.7590 C   0  0  0  0  0  3  0  0  0  0  0  0
  -28.6700  -13.0510   20.8760 C   0  0  0  0  0  2  0  0  0  0  0  0
  -29.9930  -13.3640   20.3190 N   0  0  0  0  0  0  0  0  0  0  0  0
  -31.7690  -14.7380   19.9920 O   0  0  0  0  0  0  0  0  0  0  0  0
  -25.2190  -13.8820   20.4370 C   0  0  0  0  0  0  0  0  0  0  0  0
  -24.1420  -13.1220   20.8030 C   0  0  0  0  0  0  0  0  0  0  0  0
  -24.5960  -11.7670   20.7980 C   0  0  0  0  0  0  0  0  0  0  0  0
  -26.2610  -12.9920   20.2290 N   0  0  0  0  0  0  0  0  0  0  0  0
  -25.8900  -11.7160   20.5050 N   0  0  0  0  0  0  0  0  0  0  0  0
  -23.8590  -10.5130   20.9970 C   0  0  0  0  0  0  0  0  0  0  0  0
  -24.2810   -9.5510   21.9420 C   0  0  0  0  0  3  0  0  0  0  0  0
  -23.5450   -8.3610   22.1290 C   0  0  0  0  0  3  0  0  0  0  0  0
  -22.3760   -8.1230   21.3680 C   0  0  0  0  0  0  0  0  0  0  0  0
  -21.9730   -9.0720   20.4120 C   0  0  0  0  0  3  0  0  0  0  0  0
  -22.7090  -10.2550   20.2250 C   0  0  0  0  0  3  0  0  0  0  0  0
  -21.6130   -6.9840   21.4630 O   0  0  0  0  0  0  0  0  0  0  0  0
  -21.5580   -6.2490   22.6190 C   0  0  0  0  0  0  0  0  0  0  0  0
  -21.1410   -6.8180   23.8420 C   0  0  0  0  0  3  0  0  0  0  0  0
  -21.0320   -6.0110   24.9930 C   0  0  0  0  0  3  0  0  0  0  0  0
  -21.3320   -4.6370   24.9190 C   0  0  0  0  0  0  0  0  0  0  0  0
  -21.7420   -4.0680   23.7000 C   0  0  0  0  0  3  0  0  0  0  0  0
  -21.8530   -4.8730   22.5540 C   0  0  0  0  0  0  0  0  0  0  0  0
  -22.2290   -4.3170   21.3760 F   0  0  0  0  0  0  0  0  0  0  0  0
  -21.2200   -3.8570   26.0220 F   0  0  0  0  0  0  0  0  0  0  0  0
  -22.7440  -13.6100   21.0520 C   0  0  0  0  0  0  0  0  0  0  0  0
  -22.0010  -12.9320   21.9200 N   0  0  0  0  0  0  0  0  0  0  0  0
  -22.3170  -14.6290   20.5110 O   0  0  0  0  0  0  0  0  0  0  0  0
  -22.3580  -12.1060   22.3770 H   0  0  0  0  0  0  0  0  0  0  0  0
  -21.0630  -13.2420   22.1280 H   0  0  0  0  0  0  0  0  0  0  0  0
  -25.3960  -15.2490   20.2400 N   0  0  0  0  0  0  0  0  0  0  0  0
  -24.6300  -15.9100   20.3170 H   0  0  0  0  0  0  0  0  0  0  0  0
  -26.2460  -15.6680   19.8890 H   0  0  0  0  0  0  0  0  0  0  0  0
  1  2  2  0
  1  3  1  0
  2  4  1  0
  3  6  2  0
  4  8  1  0
  4  5  2  0
  5  7  1  0
  6  5  1  0
  6 12  1  0
  8 10  1  0
  9  7  1  0
 10  9  1  0
 10 11  1  1
 13 15  1  0
 13 12  1  0
 14 25  2  0
 15 20  1  0
 16 24  1  0
 16 26  1  0
 17 23  1  0
 17 19  1  0
 18 24  1  0
 19 18  1  0
 20 19  2  0
 21 22  1  0
 21 15  2  0
 22 17  2  0
 23 16  1  0
 24 14  1  0
 26 28  2  0
 27 26  1  0
 29 27  1  0
 30 39  2  0
 30 35  1  0
 31 27  1  0
 31 35  1  0
 32 31  1  0
 33 34  1  0
 33 32  1  0
 34 30  1  0
 35 36  2  0
 36 37  1  0
 38 37  2  0
 39 38  1  0
 40 14  1  0
 40 45  1  0
 40 41  1  0
 41 44  1  1
 41 42  1  0
 43 41  1  0
 45 48  1  0
 46 50  1  0
 46 45  1  0
 47 46  2  0
 50 49  1  0
 52 50  1  0
 52 53  1  0
 52 51  1  0
 54 10  1  0
 55 54  1  0
 55 56  1  0
 57 56  1  0
 58 63  1  0
 59 60  1  0
 59 58  1  0
 61 60  1  0
 61 68  1  0
 61 62  1  0
 63 57  1  0
 63 62  1  0
 64 57  2  0
 65 66  2  0
 66 85  1  0
 67 66  1  0
 67 70  1  0
 68 65  1  0
 68 69  1  0
 69 67  2  0
 70 71  1  0
 71 72  2  0
 73 76  1  0
 73 72  1  0
 74 73  2  0
 75 74  1  0
 75 70  2  0
 76 77  1  0
 77 78  1  0
 78 79  2  0
 80 79  1  0
 80 84  1  0
 81 80  2  0
 82 77  2  0
 82 81  1  0
 83 82  1  0
 85 86  1  0
 86 89  1  0
 86 88  1  0
 87 85  2  0
 90 91  1  0
 90 65  1  0
 92 90  1  0
M  ISO  4  12 101  13 101  56 100  57 100
M  END
>  <TORSDO>  (68) 
F 20

>  <SCORE>  (68) 
-13.773

>  <name>  (68) 
67

>  <ligand_id>  (68) 
67

>  <original_smiles>  (68) 
[H]c1c([H])c([H])c2c(c1[H])C([H])([H])C([H])([H])C([H])([H])C2([H])N([H])C(=O)C1([H])N(C(=O)C([H])(N([H])C(=O)C([H])(N([H])C([H])([H])[H])C([H])([H])[H])C(C([H])([H])[H])(C([H])([H])[H])C([H])([H])[H])C([H])([H])c2c([H])c(OC([H])([H])c3c([H])c([H])c([H])c4c3C([H])([H])C([H])([H])[N+]([H])(C([H])([H])C([H])([H])C([H])([H])C(=O)N3C([H])([H])C([H])([H])C([H])([H])C([H])(n5nc(-c6c([H])c([H])c(Oc7c([H])c([H])c(F)c([H])c7F)c([H])c6[H])c(C(=O)N([H])[H])c5N([H])[H])C3([H])[H])C4([H])[H])c([H])c([H])c2C1([H])[H]

>  <smiles>  (68) 
[H]c1c([H])c([H])c2c(c1[H])C([H])([H])C([H])([H])C([H])([H])C2([H])N([H])C(=O)C1([H])N(C(=O)C([H])(N([H])C(=O)C([H])(N([H])C([H])([H])[H])C([H])([H])[H])C(C([H])([H])[H])(C([H])([H])[H])C([H])([H])[H])C([H])([H])c2c([H])c(OC([H])([H])c3c([H])c([H])c([H])c4c3C([H])([H])C([H])([H])[N+]([H])(C([H])([H])C([H])([H])C([H])([H])C(=O)N3C([H])([H])C([H])([H])C([H])([H])C([H])(n5nc(-c6c([H])c([H])c(Oc7c([H])c([H])c(F)c([H])c7F)c([H])c6[H])c(C(=O)N([H])[H])c5N([H])[H])C3([H])[H])C4([H])[H])c([H])c([H])c2C1([H])[H]

$$$$
68:0:0
     RDKit          3D

 96104  0  0  1  0  0  0  0  0999 V2000
  -28.0790  -19.4590   17.9710 C   0  0  0  0  0  2  0  0  0  0  0  0
  -29.4480  -20.1630   18.0630 C   0  0  0  0  0  2  0  0  0  0  0  0
  -29.6330  -19.5020   20.5600 C   0  0  0  0  0  2  0  0  0  0  0  0
  -28.1700  -17.9310   18.1470 C   0  0  0  0  0  2  0  0  0  0  0  0
  -29.7570  -17.9860   20.1020 C   0  0  0  0  0  3  0  0  0  0  0  0
  -29.8750  -20.6400   19.4810 C   0  0  1  0  0  0  0  0  0  0  0  0
  -31.3930  -20.9380   19.4000 C   0  0  0  0  0  1  0  0  0  0  0  0
  -28.4740  -17.5120   19.5320 N   0  0  0  0  0  4  0  0  0  0  0  0
  -28.5400  -16.5090   19.5190 H   0  0  0  0  0  0  0  0  0  0  0  0
  -27.7090  -17.7470   20.1470 H   0  0  0  0  0  0  0  0  0  0  0  0
  -29.1090  -21.9250   19.7280 N   0  0  0  0  0  4  0  0  0  0  0  0
  -28.1220  -21.7210   19.7770 H   0  0  0  0  0  0  0  0  0  0  0  0
  -29.2290  -22.4810   18.8960 H   0  0  0  0  0  0  0  0  0  0  0  0
  -29.4260  -22.8360   20.8740 C   0  0  0  0  0  2  0  0  0  0  0  0
  -29.5180  -24.3700   20.5190 C   0  0  0  0  0  2  0  0  0  0  0  0
  -28.1970  -25.1540   20.2480 C   0  0  0  0  0  2  0  0  0  0  0  0
  -28.3570  -26.6010   20.2350 O   0  0  0  0  0  0  0  0  0  0  0  0
  -24.5760  -31.8880   23.2520 C   0  0  0  0  0  0  0  0  0  0  0  0
  -27.1980  -27.3720   20.2050 C   0  0  0  0  0  0  0  0  0  0  0  0
  -23.3680  -30.4760   21.6250 C   0  0  0  0  0  3  0  0  0  0  0  0
  -24.8150  -28.9260   20.2050 C   0  0  0  0  0  0  0  0  0  0  0  0
  -25.9000  -30.8120   21.4300 C   0  0  0  0  0  2  0  0  0  0  0  0
  -25.9800  -29.4370   20.7910 C   0  0  0  0  0  0  0  0  0  0  0  0
  -27.1750  -28.6710   20.7800 C   0  0  0  0  0  3  0  0  0  0  0  0
  -26.0080  -26.8920   19.6100 C   0  0  0  0  0  3  0  0  0  0  0  0
  -24.8260  -27.6560   19.6090 C   0  0  0  0  0  3  0  0  0  0  0  0
  -23.5760  -29.7930   20.2480 C   0  0  0  0  0  2  0  0  0  0  0  0
  -24.6340  -31.0710   22.1630 N   0  0  0  0  0  0  0  0  0  0  0  0
  -23.4900  -32.1910   23.7640 O   0  0  0  0  0  0  0  0  0  0  0  0
  -22.7100  -29.4610   22.5880 C   0  0  0  0  0  0  0  0  0  0  0  0
  -21.3860  -29.2750   22.4550 N   0  0  0  0  0  0  0  0  0  0  0  0
  -23.3890  -28.8430   23.4130 O   0  0  0  0  0  0  0  0  0  0  0  0
  -20.8990  -29.8270   21.7630 H   0  0  0  0  0  0  0  0  0  0  0  0
  -18.0130  -28.0670   22.9340 C   0  0  0  0  0  0  0  0  0  0  0  0
  -20.5660  -28.3400   23.2270 C   0  0  0  0  0  3  0  0  0  0  0  0
  -20.6810  -26.9040   22.6660 C   0  0  0  0  0  2  0  0  0  0  0  0
  -19.5910  -26.5670   21.6450 C   0  0  0  0  0  2  0  0  0  0  0  0
  -18.2030  -26.7120   22.2730 C   0  0  0  0  0  2  0  0  0  0  0  0
  -19.1240  -28.8380   23.3670 C   0  0  0  0  0  0  0  0  0  0  0  0
  -18.8930  -30.1060   23.9440 C   0  0  0  0  0  3  0  0  0  0  0  0
  -17.5850  -30.6040   24.0920 C   0  0  0  0  0  3  0  0  0  0  0  0
  -16.4890  -29.8300   23.6750 C   0  0  0  0  0  3  0  0  0  0  0  0
  -16.7040  -28.5640   23.1020 C   0  0  0  0  0  3  0  0  0  0  0  0
  -25.8640  -32.5070   23.8800 C   0  0  0  0  0  3  0  0  0  0  0  0
  -25.5630  -33.9080   24.2100 N   0  0  0  0  0  0  0  0  0  0  0  0
  -25.8920  -34.9560   23.4430 C   0  0  0  0  0  0  0  0  0  0  0  0
  -26.5560  -34.8470   22.4090 O   0  0  0  0  0  0  0  0  0  0  0  0
  -24.9730  -34.0660   25.0130 H   0  0  0  0  0  0  0  0  0  0  0  0
  -24.1620  -36.7460   23.0920 C   0  0  0  0  0  1  0  0  0  0  0  0
  -25.4090  -36.3470   23.8970 C   0  0  0  0  0  3  0  0  0  0  0  0
  -27.5510  -37.2310   24.7060 C   0  0  0  0  0  1  0  0  0  0  0  0
  -26.4420  -37.3980   23.7710 N   0  0  0  0  0  0  0  0  0  0  0  0
  -26.0380  -38.3190   23.9190 H   0  0  0  0  0  0  0  0  0  0  0  0
  -26.3770  -31.7340   25.1570 C   0  0  1  0  0  0  0  0  0  0  0  0
  -25.2830  -31.5030   26.2240 C   0  0  0  0  0  1  0  0  0  0  0  0
  -26.9540  -30.3550   24.7650 C   0  0  0  0  0  1  0  0  0  0  0  0
  -27.5310  -32.5250   25.8200 C   0  0  0  0  0  1  0  0  0  0  0  0
  -30.2280  -16.9780   21.2170 C   0  0  0  0  0  2  0  0  0  0  0  0
  -30.6240  -14.5310   20.5130 C   0  0  0  0  0  0  0  0  0  0  0  0
  -30.3690  -12.3540   19.3610 C   0  0  0  0  0  2  0  0  0  0  0  0
  -29.4190  -12.5310   18.1570 C   0  0  0  0  0  2  0  0  0  0  0  0
  -27.9460  -12.3810   18.5870 C   0  0  0  0  0  2  0  0  0  0  0  0
  -27.6020  -13.2190   19.8470 C   0  0  0  0  0  3  0  0  0  0  0  0
  -28.6590  -13.0080   20.9550 C   0  0  0  0  0  2  0  0  0  0  0  0
  -29.9790  -13.3360   20.3870 N   0  0  0  0  0  0  0  0  0  0  0  0
  -31.7530  -14.7340   20.0590 O   0  0  0  0  0  0  0  0  0  0  0  0
  -29.8720  -15.5420   21.0140 N   0  0  0  0  0  0  0  0  0  0  0  0
  -28.9990  -15.2360   21.4210 H   0  0  0  0  0  0  0  0  0  0  0  0
  -25.2060  -13.8330   20.5560 C   0  0  0  0  0  0  0  0  0  0  0  0
  -24.1380  -13.0650   20.9350 C   0  0  0  0  0  0  0  0  0  0  0  0
  -24.5960  -11.7110   20.9010 C   0  0  0  0  0  0  0  0  0  0  0  0
  -26.2480  -12.9480   20.3230 N   0  0  0  0  0  0  0  0  0  0  0  0
  -25.8850  -11.6690   20.5890 N   0  0  0  0  0  0  0  0  0  0  0  0
  -23.8670  -10.4520   21.0880 C   0  0  0  0  0  0  0  0  0  0  0  0
  -24.3090   -9.4740   22.0060 C   0  0  0  0  0  3  0  0  0  0  0  0
  -23.5810   -8.2780   22.1830 C   0  0  0  0  0  3  0  0  0  0  0  0
  -22.3980   -8.0510   21.4410 C   0  0  0  0  0  0  0  0  0  0  0  0
  -21.9750   -9.0180   20.5110 C   0  0  0  0  0  3  0  0  0  0  0  0
  -22.7030  -10.2060   20.3330 C   0  0  0  0  0  3  0  0  0  0  0  0
  -21.6400   -6.9080   21.5280 O   0  0  0  0  0  0  0  0  0  0  0  0
  -21.6190   -6.1450   22.6680 C   0  0  0  0  0  0  0  0  0  0  0  0
  -21.2340   -6.6810   23.9160 C   0  0  0  0  0  3  0  0  0  0  0  0
  -21.1590   -5.8450   25.0480 C   0  0  0  0  0  3  0  0  0  0  0  0
  -21.4570   -4.4740   24.9340 C   0  0  0  0  0  0  0  0  0  0  0  0
  -21.8360   -3.9380   23.6900 C   0  0  0  0  0  3  0  0  0  0  0  0
  -21.9130   -4.7710   22.5600 C   0  0  0  0  0  0  0  0  0  0  0  0
  -22.2580   -4.2440   21.3600 F   0  0  0  0  0  0  0  0  0  0  0  0
  -21.3780   -3.6700   26.0190 F   0  0  0  0  0  0  0  0  0  0  0  0
  -22.7420  -13.5450   21.2020 C   0  0  0  0  0  0  0  0  0  0  0  0
  -22.0090  -12.8520   22.0670 N   0  0  0  0  0  0  0  0  0  0  0  0
  -22.3090  -14.5720   20.6790 O   0  0  0  0  0  0  0  0  0  0  0  0
  -22.3720  -12.0220   22.5110 H   0  0  0  0  0  0  0  0  0  0  0  0
  -21.0720  -13.1560   22.2870 H   0  0  0  0  0  0  0  0  0  0  0  0
  -25.3690  -15.2010   20.3550 N   0  0  0  0  0  0  0  0  0  0  0  0
  -24.5110  -15.7440   20.3560 H   0  0  0  0  0  0  0  0  0  0  0  0
  -25.9740  -15.4670   19.5930 H   0  0  0  0  0  0  0  0  0  0  0  0
  1  2  1  0
  1  4  1  0
  2  6  1  0
  4  8  1  0
  5  3  1  0
  5 58  1  0
  6  7  1  6
  6 11  1  0
  6  3  1  0
  8  5  1  0
  8 10  1  0
  9  8  1  0
 11 12  1  0
 11 14  1  0
 13 11  1  0
 15 14  1  0
 16 15  1  0
 17 16  1  0
 18 29  2  0
 19 17  1  0
 19 24  1  0
 20 28  1  0
 20 30  1  0
 21 27  1  0
 21 23  1  0
 22 28  1  0
 23 22  1  0
 24 23  2  0
 25 19  2  0
 26 25  1  0
 26 21  2  0
 27 20  1  0
 28 18  1  0
 30 32  2  0
 31 30  1  0
 33 31  1  0
 34 43  2  0
 34 39  1  0
 35 31  1  0
 35 39  1  0
 36 35  1  0
 37 38  1  0
 37 36  1  0
 38 34  1  0
 39 40  2  0
 40 41  1  0
 42 41  2  0
 43 42  1  0
 44 18  1  0
 44 45  1  0
 44 54  1  0
 45 48  1  0
 46 50  1  0
 46 45  1  0
 47 46  2  0
 50 49  1  0
 52 50  1  0
 52 53  1  0
 52 51  1  0
 54 57  1  1
 54 55  1  0
 56 54  1  0
 59 67  1  0
 60 65  1  0
 61 62  1  0
 61 60  1  0
 63 62  1  0
 63 72  1  0
 63 64  1  0
 65 59  1  0
 65 64  1  0
 66 59  2  0
 67 58  1  0
 67 68  1  0
 69 70  2  0
 70 89  1  0
 71 70  1  0
 71 74  1  0
 72 69  1  0
 72 73  1  0
 73 71  2  0
 74 75  1  0
 75 76  2  0
 77 80  1  0
 77 76  1  0
 78 77  2  0
 79 78  1  0
 79 74  2  0
 80 81  1  0
 81 82  1  0
 82 83  2  0
 84 83  1  0
 84 88  1  0
 85 84  2  0
 86 81  2  0
 86 85  1  0
 87 86  1  0
 89 90  1  0
 90 93  1  0
 90 92  1  0
 91 89  2  0
 94 95  1  0
 94 69  1  0
 96 94  1  0
M  ISO  4  16 101  17 101  59 100  67 100
M  END
>  <TORSDO>  (69) 
F 21

>  <SCORE>  (69) 
-13.714

>  <name>  (69) 
68

>  <ligand_id>  (69) 
68

>  <original_smiles>  (69) 
[H]c1c([H])c([H])c2c(c1[H])C([H])([H])C([H])([H])C([H])([H])C2([H])N([H])C(=O)C1([H])N(C(=O)C([H])(N([H])C(=O)C([H])(N([H])C([H])([H])[H])C([H])([H])[H])C(C([H])([H])[H])(C([H])([H])[H])C([H])([H])[H])C([H])([H])c2c([H])c(OC([H])([H])C([H])([H])C([H])([H])[N+]([H])([H])C3(C([H])([H])[H])C([H])([H])C([H])([H])C([H])([H])[N+]([H])([H])C([H])(C([H])([H])N([H])C(=O)N4C([H])([H])C([H])([H])C([H])([H])C([H])(n5nc(-c6c([H])c([H])c(Oc7c([H])c([H])c(F)c([H])c7F)c([H])c6[H])c(C(=O)N([H])[H])c5N([H])[H])C4([H])[H])C3([H])[H])c([H])c([H])c2C1([H])[H]

>  <smiles>  (69) 
[H]c1c([H])c([H])c2c(c1[H])C([H])([H])C([H])([H])C([H])([H])C2([H])N([H])C(=O)C1([H])N(C(=O)C([H])(N([H])C(=O)C([H])(N([H])C([H])([H])[H])C([H])([H])[H])C(C([H])([H])[H])(C([H])([H])[H])C([H])([H])[H])C([H])([H])c2c([H])c(OC([H])([H])C([H])([H])C([H])([H])[N+]([H])([H])C3(C([H])([H])[H])C([H])([H])C([H])([H])C([H])([H])[N+]([H])([H])C([H])(C([H])([H])N([H])C(=O)N4C([H])([H])C([H])([H])C([H])([H])C([H])(n5nc(-c6c([H])c([H])c(Oc7c([H])c([H])c(F)c([H])c7F)c([H])c6[H])c(C(=O)N([H])[H])c5N([H])[H])C4([H])[H])C3([H])[H])c([H])c([H])c2C1([H])[H]

$$$$
69:0:0
     RDKit          3D

 90 98  0  0  1  0  0  0  0  0999 V2000
  -30.3680  -22.0570   20.3150 C   0  0  0  0  0  2  0  0  0  0  0  0
  -27.9650  -21.4980   19.9770 C   0  0  0  0  0  2  0  0  0  0  0  0
  -29.9750  -23.4610   20.8630 C   0  0  0  0  0  2  0  0  0  0  0  0
  -27.5650  -22.8900   20.5430 C   0  0  0  0  0  2  0  0  0  0  0  0
  -29.2960  -20.9540   20.5550 C   0  0  0  0  0  3  0  0  0  0  0  0
  -28.6270  -24.0040   20.3190 C   0  0  0  0  0  3  0  0  0  0  0  0
  -29.7050  -19.5860   19.9130 C   0  0  0  0  0  0  0  0  0  0  0  0
  -29.7310  -18.4470   20.6520 N   0  0  0  0  0  0  0  0  0  0  0  0
  -30.0280  -19.5670   18.7230 O   0  0  0  0  0  0  0  0  0  0  0  0
  -29.4520  -18.5100   21.6230 H   0  0  0  0  0  0  0  0  0  0  0  0
  -30.2540  -17.1420   20.1580 C   0  0  0  0  0  2  0  0  0  0  0  0
  -29.9120  -15.8540   20.9950 C   0  0  0  0  0  2  0  0  0  0  0  0
  -30.6160  -14.5540   20.4700 C   0  0  0  0  0  0  0  0  0  0  0  0
  -30.3410  -12.3580   19.3600 C   0  0  0  0  0  2  0  0  0  0  0  0
  -29.4130  -12.5460   18.1420 C   0  0  0  0  0  2  0  0  0  0  0  0
  -27.9340  -12.4080   18.5580 C   0  0  0  0  0  2  0  0  0  0  0  0
  -27.5840  -13.2570   19.8090 C   0  0  0  0  0  3  0  0  0  0  0  0
  -28.6320  -13.0640   20.9290 C   0  0  0  0  0  2  0  0  0  0  0  0
  -29.9560  -13.3630   20.3680 N   0  0  0  0  0  0  0  0  0  0  0  0
  -31.7640  -14.6760   20.0340 O   0  0  0  0  0  0  0  0  0  0  0  0
  -25.1810  -13.8690   20.4920 C   0  0  0  0  0  0  0  0  0  0  0  0
  -24.1090  -13.1020   20.8580 C   0  0  0  0  0  0  0  0  0  0  0  0
  -24.5710  -11.7500   20.8490 C   0  0  0  0  0  0  0  0  0  0  0  0
  -26.2280  -12.9850   20.2810 N   0  0  0  0  0  0  0  0  0  0  0  0
  -25.8640  -11.7060   20.5550 N   0  0  0  0  0  0  0  0  0  0  0  0
  -23.8410  -10.4900   21.0460 C   0  0  0  0  0  0  0  0  0  0  0  0
  -24.2800   -9.5210   21.9750 C   0  0  0  0  0  3  0  0  0  0  0  0
  -23.5500   -8.3250   22.1600 C   0  0  0  0  0  3  0  0  0  0  0  0
  -22.3690   -8.0920   21.4170 C   0  0  0  0  0  0  0  0  0  0  0  0
  -21.9500   -9.0500   20.4780 C   0  0  0  0  0  3  0  0  0  0  0  0
  -22.6790  -10.2370   20.2900 C   0  0  0  0  0  3  0  0  0  0  0  0
  -21.6110   -6.9510   21.5120 O   0  0  0  0  0  0  0  0  0  0  0  0
  -21.5900   -6.1940   22.6560 C   0  0  0  0  0  0  0  0  0  0  0  0
  -21.2210   -6.7390   23.9050 C   0  0  0  0  0  3  0  0  0  0  0  0
  -21.1470   -5.9100   25.0410 C   0  0  0  0  0  3  0  0  0  0  0  0
  -21.4300   -4.5360   24.9310 C   0  0  0  0  0  0  0  0  0  0  0  0
  -21.7930   -3.9890   23.6880 C   0  0  0  0  0  3  0  0  0  0  0  0
  -21.8700   -4.8150   22.5530 C   0  0  0  0  0  0  0  0  0  0  0  0
  -22.1980   -4.2800   21.3520 F   0  0  0  0  0  0  0  0  0  0  0  0
  -21.3520   -3.7370   26.0210 F   0  0  0  0  0  0  0  0  0  0  0  0
  -22.7090  -13.5830   21.1110 C   0  0  0  0  0  0  0  0  0  0  0  0
  -21.9730  -12.8990   21.9780 N   0  0  0  0  0  0  0  0  0  0  0  0
  -22.2770  -14.6020   20.5720 O   0  0  0  0  0  0  0  0  0  0  0  0
  -22.3350  -12.0750   22.4360 H   0  0  0  0  0  0  0  0  0  0  0  0
  -21.0340  -13.2040   22.1910 H   0  0  0  0  0  0  0  0  0  0  0  0
  -25.3490  -15.2370   20.2990 N   0  0  0  0  0  0  0  0  0  0  0  0
  -24.5840  -15.8960   20.3960 H   0  0  0  0  0  0  0  0  0  0  0  0
  -26.2070  -15.6720   19.9830 H   0  0  0  0  0  0  0  0  0  0  0  0
  -28.1980  -25.3680   20.9830 C   0  0  0  0  0  2  0  0  0  0  0  0
  -28.3670  -26.5960   20.2200 O   0  0  0  0  0  0  0  0  0  0  0  0
  -24.6290  -31.9020   23.2520 C   0  0  0  0  0  0  0  0  0  0  0  0
  -27.2440  -27.4070   20.1880 C   0  0  0  0  0  0  0  0  0  0  0  0
  -23.4150  -30.4890   21.6280 C   0  0  0  0  0  3  0  0  0  0  0  0
  -24.8620  -28.9460   20.1960 C   0  0  0  0  0  0  0  0  0  0  0  0
  -25.9460  -30.8350   21.4220 C   0  0  0  0  0  2  0  0  0  0  0  0
  -26.0280  -29.4620   20.7780 C   0  0  0  0  0  0  0  0  0  0  0  0
  -27.2260  -28.7030   20.7660 C   0  0  0  0  0  3  0  0  0  0  0  0
  -26.0650  -26.9190   19.5880 C   0  0  0  0  0  3  0  0  0  0  0  0
  -24.8780  -27.6760   19.5930 C   0  0  0  0  0  3  0  0  0  0  0  0
  -23.6190  -29.8060   20.2490 C   0  0  0  0  0  2  0  0  0  0  0  0
  -24.6830  -31.0870   22.1600 N   0  0  0  0  0  0  0  0  0  0  0  0
  -23.5450  -32.2000   23.7720 O   0  0  0  0  0  0  0  0  0  0  0  0
  -22.7660  -29.4710   22.5960 C   0  0  0  0  0  0  0  0  0  0  0  0
  -21.4410  -29.2830   22.4710 N   0  0  0  0  0  0  0  0  0  0  0  0
  -23.4520  -28.8540   23.4150 O   0  0  0  0  0  0  0  0  0  0  0  0
  -20.9500  -29.8330   21.7810 H   0  0  0  0  0  0  0  0  0  0  0  0
  -18.0760  -28.0590   22.9590 C   0  0  0  0  0  0  0  0  0  0  0  0
  -20.6290  -28.3450   23.2450 C   0  0  0  0  0  3  0  0  0  0  0  0
  -20.7490  -26.9090   22.6840 C   0  0  0  0  0  2  0  0  0  0  0  0
  -19.6580  -26.5660   21.6660 C   0  0  0  0  0  2  0  0  0  0  0  0
  -18.2700  -26.7040   22.3000 C   0  0  0  0  0  2  0  0  0  0  0  0
  -19.1840  -28.8360   23.3890 C   0  0  0  0  0  0  0  0  0  0  0  0
  -18.9490  -30.1030   23.9660 C   0  0  0  0  0  3  0  0  0  0  0  0
  -17.6380  -30.5940   24.1160 C   0  0  0  0  0  3  0  0  0  0  0  0
  -16.5440  -29.8140   23.7030 C   0  0  0  0  0  3  0  0  0  0  0  0
  -16.7640  -28.5480   23.1300 C   0  0  0  0  0  3  0  0  0  0  0  0
  -25.9180  -32.5260   23.8740 C   0  0  0  0  0  3  0  0  0  0  0  0
  -26.4440  -31.7480   25.1420 C   0  0  1  0  0  0  0  0  0  0  0  0
  -25.3590  -31.5070   26.2170 C   0  0  0  0  0  1  0  0  0  0  0  0
  -27.0240  -30.3720   24.7400 C   0  0  0  0  0  1  0  0  0  0  0  0
  -27.6020  -32.5380   25.7990 C   0  0  0  0  0  1  0  0  0  0  0  0
  -25.6120  -33.9210   24.2130 N   0  0  0  0  0  0  0  0  0  0  0  0
  -25.9320  -34.9760   23.4500 C   0  0  0  0  0  0  0  0  0  0  0  0
  -26.5880  -34.8750   22.4100 O   0  0  0  0  0  0  0  0  0  0  0  0
  -25.0280  -34.0740   25.0220 H   0  0  0  0  0  0  0  0  0  0  0  0
  -24.1880  -36.7580   23.1280 C   0  0  0  0  0  1  0  0  0  0  0  0
  -25.4450  -36.3610   23.9160 C   0  0  0  0  0  3  0  0  0  0  0  0
  -27.5930  -37.2530   24.7050 C   0  0  0  0  0  1  0  0  0  0  0  0
  -26.4710  -37.4190   23.7840 N   0  0  0  0  0  0  0  0  0  0  0  0
  -26.0640  -38.3380   23.9410 H   0  0  0  0  0  0  0  0  0  0  0  0
  1  5  1  0
  1  3  1  0
  2  4  1  0
  2  5  1  0
  5  7  1  0
  6  4  1  0
  6  3  1  0
  6 49  1  0
  7  8  1  0
  8 10  1  0
  9  7  2  0
 11  8  1  0
 11 12  1  0
 13 12  1  0
 14 19  1  0
 15 16  1  0
 15 14  1  0
 17 16  1  0
 17 24  1  0
 17 18  1  0
 19 13  1  0
 19 18  1  0
 20 13  2  0
 21 22  2  0
 22 41  1  0
 23 22  1  0
 23 26  1  0
 24 21  1  0
 24 25  1  0
 25 23  2  0
 26 27  1  0
 27 28  2  0
 29 32  1  0
 29 28  1  0
 30 29  2  0
 31 30  1  0
 31 26  2  0
 32 33  1  0
 33 34  1  0
 34 35  2  0
 36 35  1  0
 36 40  1  0
 37 36  2  0
 38 33  2  0
 38 37  1  0
 39 38  1  0
 41 42  1  0
 42 45  1  0
 42 44  1  0
 43 41  2  0
 46 47  1  0
 46 21  1  0
 48 46  1  0
 50 49  1  0
 51 62  2  0
 52 50  1  0
 52 57  1  0
 53 61  1  0
 53 63  1  0
 54 60  1  0
 54 56  1  0
 55 61  1  0
 56 55  1  0
 57 56  2  0
 58 59  1  0
 58 52  2  0
 59 54  2  0
 60 53  1  0
 61 51  1  0
 63 65  2  0
 64 63  1  0
 66 64  1  0
 67 76  2  0
 67 72  1  0
 68 64  1  0
 68 72  1  0
 69 68  1  0
 70 71  1  0
 70 69  1  0
 71 67  1  0
 72 73  2  0
 73 74  1  0
 75 74  2  0
 76 75  1  0
 77 51  1  0
 77 82  1  0
 77 78  1  0
 78 81  1  1
 78 79  1  0
 80 78  1  0
 82 85  1  0
 83 87  1  0
 83 82  1  0
 84 83  2  0
 87 86  1  0
 89 87  1  0
 89 90  1  0
 89 88  1  0
M  ISO  4  12 100  13 100  49 101  50 101
M  END
>  <TORSDO>  (70) 
F 20

>  <SCORE>  (70) 
-13.883

>  <name>  (70) 
69

>  <ligand_id>  (70) 
69

>  <original_smiles>  (70) 
[H]c1c([H])c([H])c2c(c1[H])C([H])([H])C([H])([H])C([H])([H])C2([H])N([H])C(=O)C1([H])N(C(=O)C([H])(N([H])C(=O)C([H])(N([H])C([H])([H])[H])C([H])([H])[H])C(C([H])([H])[H])(C([H])([H])[H])C([H])([H])[H])C([H])([H])c2c([H])c(OC([H])([H])C3([H])C([H])([H])C([H])([H])C([H])(C(=O)N([H])C([H])([H])C([H])([H])C(=O)N4C([H])([H])C([H])([H])C([H])([H])C([H])(n5nc(-c6c([H])c([H])c(Oc7c([H])c([H])c(F)c([H])c7F)c([H])c6[H])c(C(=O)N([H])[H])c5N([H])[H])C4([H])[H])C([H])([H])C3([H])[H])c([H])c([H])c2C1([H])[H]

>  <smiles>  (70) 
[H]c1c([H])c([H])c2c(c1[H])C([H])([H])C([H])([H])C([H])([H])C2([H])N([H])C(=O)C1([H])N(C(=O)C([H])(N([H])C(=O)C([H])(N([H])C([H])([H])[H])C([H])([H])[H])C(C([H])([H])[H])(C([H])([H])[H])C([H])([H])[H])C([H])([H])c2c([H])c(OC([H])([H])C3([H])C([H])([H])C([H])([H])C([H])(C(=O)N([H])C([H])([H])C([H])([H])C(=O)N4C([H])([H])C([H])([H])C([H])([H])C([H])(n5nc(-c6c([H])c([H])c(Oc7c([H])c([H])c(F)c([H])c7F)c([H])c6[H])c(C(=O)N([H])[H])c5N([H])[H])C4([H])[H])C([H])([H])C3([H])[H])c([H])c([H])c2C1([H])[H]

$$$$
70:0:0
     RDKit          3D

 95103  0  0  1  0  0  0  0  0999 V2000
  -30.2310  -23.2950   23.4920 C   0  0  0  0  0  1  0  0  0  0  0  0
  -29.5370  -22.4370   22.4160 C   0  0  0  0  0  3  0  0  0  0  0  0
  -32.2890  -19.4640   20.8290 C   0  0  0  0  0  3  0  0  0  0  0  0
  -31.5940  -21.7920   21.0520 C   0  0  0  0  0  3  0  0  0  0  0  0
  -30.2820  -20.0190   22.0960 C   0  0  0  0  0  3  0  0  0  0  0  0
  -32.4930  -20.8300   20.5480 C   0  0  0  0  0  0  0  0  0  0  0  0
  -31.1860  -19.0520   21.6050 C   0  0  0  0  0  0  0  0  0  0  0  0
  -30.4850  -21.3950   21.8300 C   0  0  0  0  0  0  0  0  0  0  0  0
  -33.6810  -21.2570   19.7090 C   0  0  0  0  0  1  0  0  0  0  0  0
  -30.9750  -17.5740   21.9070 C   0  0  0  0  0  2  0  0  0  0  0  0
  -30.1750  -16.8700   20.7990 C   0  0  0  0  0  2  0  0  0  0  0  0
  -30.6740  -14.4490   20.5070 C   0  0  0  0  0  0  0  0  0  0  0  0
  -30.3650  -12.3070   19.3370 C   0  0  0  0  0  2  0  0  0  0  0  0
  -29.4210  -12.5420   18.1400 C   0  0  0  0  0  2  0  0  0  0  0  0
  -27.9470  -12.4110   18.5720 C   0  0  0  0  0  2  0  0  0  0  0  0
  -27.6200  -13.2360   19.8450 C   0  0  0  0  0  3  0  0  0  0  0  0
  -28.6740  -12.9800   20.9470 C   0  0  0  0  0  2  0  0  0  0  0  0
  -30.0050  -13.2730   20.3840 N   0  0  0  0  0  0  0  0  0  0  0  0
  -31.7780  -14.6620   19.9980 O   0  0  0  0  0  0  0  0  0  0  0  0
  -29.9620  -15.4420   21.0570 N   0  0  0  0  0  0  0  0  0  0  0  0
  -29.0800  -15.1810   21.4710 H   0  0  0  0  0  0  0  0  0  0  0  0
  -25.2200  -13.8580   20.5490 C   0  0  0  0  0  0  0  0  0  0  0  0
  -24.1500  -13.0910   20.9220 C   0  0  0  0  0  0  0  0  0  0  0  0
  -24.6050  -11.7360   20.8940 C   0  0  0  0  0  0  0  0  0  0  0  0
  -26.2630  -12.9720   20.3220 N   0  0  0  0  0  0  0  0  0  0  0  0
  -25.8950  -11.6930   20.5840 N   0  0  0  0  0  0  0  0  0  0  0  0
  -23.8770  -10.4770   21.0880 C   0  0  0  0  0  0  0  0  0  0  0  0
  -24.3260   -9.4990   22.0020 C   0  0  0  0  0  3  0  0  0  0  0  0
  -23.5980   -8.3030   22.1850 C   0  0  0  0  0  3  0  0  0  0  0  0
  -22.4080   -8.0780   21.4540 C   0  0  0  0  0  0  0  0  0  0  0  0
  -21.9780   -9.0470   20.5290 C   0  0  0  0  0  3  0  0  0  0  0  0
  -22.7060  -10.2330   20.3440 C   0  0  0  0  0  3  0  0  0  0  0  0
  -21.6490   -6.9360   21.5460 O   0  0  0  0  0  0  0  0  0  0  0  0
  -21.6410   -6.1680   22.6830 C   0  0  0  0  0  0  0  0  0  0  0  0
  -21.2890   -6.7030   23.9410 C   0  0  0  0  0  3  0  0  0  0  0  0
  -21.2250   -5.8630   25.0710 C   0  0  0  0  0  3  0  0  0  0  0  0
  -21.5050   -4.4880   24.9450 C   0  0  0  0  0  0  0  0  0  0  0  0
  -21.8500   -3.9540   23.6900 C   0  0  0  0  0  3  0  0  0  0  0  0
  -21.9160   -4.7900   22.5630 C   0  0  0  0  0  0  0  0  0  0  0  0
  -22.2290   -4.2650   21.3540 F   0  0  0  0  0  0  0  0  0  0  0  0
  -21.4380   -3.6790   26.0270 F   0  0  0  0  0  0  0  0  0  0  0  0
  -22.7530  -13.5720   21.1950 C   0  0  0  0  0  0  0  0  0  0  0  0
  -22.0240  -12.8820   22.0640 N   0  0  0  0  0  0  0  0  0  0  0  0
  -22.3160  -14.5960   20.6720 O   0  0  0  0  0  0  0  0  0  0  0  0
  -22.3910  -12.0560   22.5130 H   0  0  0  0  0  0  0  0  0  0  0  0
  -21.0890  -13.1880   22.2870 H   0  0  0  0  0  0  0  0  0  0  0  0
  -25.3880  -15.2290   20.3670 N   0  0  0  0  0  0  0  0  0  0  0  0
  -24.6220  -15.8850   20.4720 H   0  0  0  0  0  0  0  0  0  0  0  0
  -26.2400  -15.6640   20.0340 H   0  0  0  0  0  0  0  0  0  0  0  0
  -28.8350  -23.1970   21.3490 N   0  0  0  0  0  4  0  0  0  0  0  0
  -28.9460  -22.6810   20.4890 H   0  0  0  0  0  0  0  0  0  0  0  0
  -27.8560  -23.1480   21.5810 H   0  0  0  0  0  0  0  0  0  0  0  0
  -29.1790  -24.6330   21.1380 C   0  0  0  0  0  2  0  0  0  0  0  0
  -28.2480  -25.2840   20.0990 C   0  0  0  0  0  2  0  0  0  0  0  0
  -28.3500  -26.7160   20.1420 O   0  0  0  0  0  0  0  0  0  0  0  0
  -24.5640  -31.8940   23.2180 C   0  0  0  0  0  0  0  0  0  0  0  0
  -27.1730  -27.4390   20.1180 C   0  0  0  0  0  0  0  0  0  0  0  0
  -23.3410  -30.4840   21.5980 C   0  0  0  0  0  3  0  0  0  0  0  0
  -24.7780  -28.9480   20.1560 C   0  0  0  0  0  0  0  0  0  0  0  0
  -25.8660  -30.8360   21.3780 C   0  0  0  0  0  2  0  0  0  0  0  0
  -25.9420  -29.4670   20.7360 C   0  0  0  0  0  0  0  0  0  0  0  0
  -27.1420  -28.7200   20.7140 C   0  0  0  0  0  3  0  0  0  0  0  0
  -25.9920  -26.9460   19.5110 C   0  0  0  0  0  3  0  0  0  0  0  0
  -24.7980  -27.6870   19.5400 C   0  0  0  0  0  3  0  0  0  0  0  0
  -23.5350  -29.8050   20.2160 C   0  0  0  0  0  2  0  0  0  0  0  0
  -24.6100  -31.0830   22.1240 N   0  0  0  0  0  0  0  0  0  0  0  0
  -23.4830  -32.1900   23.7460 O   0  0  0  0  0  0  0  0  0  0  0  0
  -22.7010  -29.4620   22.5650 C   0  0  0  0  0  0  0  0  0  0  0  0
  -21.3770  -29.2770   22.4480 N   0  0  0  0  0  0  0  0  0  0  0  0
  -23.3920  -28.8380   23.3740 O   0  0  0  0  0  0  0  0  0  0  0  0
  -20.8820  -29.8290   21.7620 H   0  0  0  0  0  0  0  0  0  0  0  0
  -18.0090  -28.0720   22.9620 C   0  0  0  0  0  0  0  0  0  0  0  0
  -20.5660  -28.3400   23.2250 C   0  0  0  0  0  3  0  0  0  0  0  0
  -20.6730  -26.9070   22.6540 C   0  0  0  0  0  2  0  0  0  0  0  0
  -19.5670  -26.5740   21.6460 C   0  0  0  0  0  2  0  0  0  0  0  0
  -18.1870  -26.7190   22.2940 C   0  0  0  0  0  2  0  0  0  0  0  0
  -19.1260  -28.8400   23.3860 C   0  0  0  0  0  0  0  0  0  0  0  0
  -18.9050  -30.1050   23.9700 C   0  0  0  0  0  3  0  0  0  0  0  0
  -17.5990  -30.6040   24.1360 C   0  0  0  0  0  3  0  0  0  0  0  0
  -16.4970  -29.8330   23.7290 C   0  0  0  0  0  3  0  0  0  0  0  0
  -16.7020  -28.5700   23.1490 C   0  0  0  0  0  3  0  0  0  0  0  0
  -25.8580  -32.5150   23.8320 C   0  0  0  0  0  3  0  0  0  0  0  0
  -25.5550  -33.9090   24.1750 N   0  0  0  0  0  0  0  0  0  0  0  0
  -25.8710  -34.9650   23.4130 C   0  0  0  0  0  0  0  0  0  0  0  0
  -26.5220  -34.8660   22.3700 O   0  0  0  0  0  0  0  0  0  0  0  0
  -24.9760  -34.0610   24.9870 H   0  0  0  0  0  0  0  0  0  0  0  0
  -24.1260  -36.7470   23.0970 C   0  0  0  0  0  1  0  0  0  0  0  0
  -25.3860  -36.3490   23.8820 C   0  0  0  0  0  3  0  0  0  0  0  0
  -27.5350  -37.2380   24.6680 C   0  0  0  0  0  1  0  0  0  0  0  0
  -26.4110  -37.4060   23.7510 N   0  0  0  0  0  0  0  0  0  0  0  0
  -26.0050  -38.3240   23.9120 H   0  0  0  0  0  0  0  0  0  0  0  0
  -26.3940  -31.7330   25.0950 C   0  0  1  0  0  0  0  0  0  0  0  0
  -25.3140  -31.4880   26.1750 C   0  0  0  0  0  1  0  0  0  0  0  0
  -26.9720  -30.3590   24.6840 C   0  0  0  0  0  1  0  0  0  0  0  0
  -27.5530  -32.5230   25.7470 C   0  0  0  0  0  1  0  0  0  0  0  0
  2  1  1  0
  3  7  1  0
  4  8  2  0
  6  3  2  0
  6  4  1  0
  7 10  1  0
  7  5  2  0
  8  5  1  0
  8  2  1  0
  9  6  1  0
 11 20  1  0
 11 10  1  0
 12 20  1  0
 13 18  1  0
 14 15  1  0
 14 13  1  0
 16 15  1  0
 16 25  1  0
 16 17  1  0
 18 12  1  0
 18 17  1  0
 19 12  2  0
 20 21  1  0
 22 23  2  0
 23 42  1  0
 24 23  1  0
 24 27  1  0
 25 22  1  0
 25 26  1  0
 26 24  2  0
 27 28  1  0
 28 29  2  0
 30 33  1  0
 30 29  1  0
 31 30  2  0
 32 31  1  0
 32 27  2  0
 33 34  1  0
 34 35  1  0
 35 36  2  0
 37 36  1  0
 37 41  1  0
 38 37  2  0
 39 34  2  0
 39 38  1  0
 40 39  1  0
 42 43  1  0
 43 46  1  0
 43 45  1  0
 44 42  2  0
 47 48  1  0
 47 22  1  0
 49 47  1  0
 50 52  1  0
 50  2  1  0
 51 50  1  0
 53 50  1  0
 54 55  1  0
 54 53  1  0
 56 67  2  0
 57 55  1  0
 57 62  1  0
 58 66  1  0
 58 68  1  0
 59 65  1  0
 59 61  1  0
 60 66  1  0
 61 60  1  0
 62 61  2  0
 63 64  1  0
 63 57  2  0
 64 59  2  0
 65 58  1  0
 66 56  1  0
 68 70  2  0
 69 68  1  0
 71 69  1  0
 72 81  2  0
 72 77  1  0
 73 69  1  0
 73 77  1  0
 74 73  1  0
 75 76  1  0
 75 74  1  0
 76 72  1  0
 77 78  2  0
 78 79  1  0
 80 79  2  0
 81 80  1  0
 82 56  1  0
 82 83  1  0
 82 92  1  0
 83 86  1  0
 84 88  1  0
 84 83  1  0
 85 84  2  0
 88 87  1  0
 90 88  1  0
 90 91  1  0
 90 89  1  0
 92 95  1  1
 92 93  1  0
 94 92  1  0
M  ISO  4  12 100  20 100  54 101  55 101
M  END
>  <TORSDO>  (71) 
F 22

>  <SCORE>  (71) 
-13.095

>  <name>  (71) 
70

>  <ligand_id>  (71) 
70

>  <original_smiles>  (71) 
[H]c1c([H])c([H])c2c(c1[H])C([H])([H])C([H])([H])C([H])([H])C2([H])N([H])C(=O)C1([H])N(C(=O)C([H])(N([H])C(=O)C([H])(N([H])C([H])([H])[H])C([H])([H])[H])C(C([H])([H])[H])(C([H])([H])[H])C([H])([H])[H])C([H])([H])c2c([H])c(OC([H])([H])C([H])([H])[N+]([H])([H])C([H])(c3c([H])c(C([H])([H])[H])c([H])c(C([H])([H])C([H])([H])N([H])C(=O)N4C([H])([H])C([H])([H])C([H])([H])C([H])(n5nc(-c6c([H])c([H])c(Oc7c([H])c([H])c(F)c([H])c7F)c([H])c6[H])c(C(=O)N([H])[H])c5N([H])[H])C4([H])[H])c3[H])C([H])([H])[H])c([H])c([H])c2C1([H])[H]

>  <smiles>  (71) 
[H]c1c([H])c([H])c2c(c1[H])C([H])([H])C([H])([H])C([H])([H])C2([H])N([H])C(=O)C1([H])N(C(=O)C([H])(N([H])C(=O)C([H])(N([H])C([H])([H])[H])C([H])([H])[H])C(C([H])([H])[H])(C([H])([H])[H])C([H])([H])[H])C([H])([H])c2c([H])c(OC([H])([H])C([H])([H])[N+]([H])([H])C([H])(c3c([H])c(C([H])([H])[H])c([H])c(C([H])([H])C([H])([H])N([H])C(=O)N4C([H])([H])C([H])([H])C([H])([H])C([H])(n5nc(-c6c([H])c([H])c(Oc7c([H])c([H])c(F)c([H])c7F)c([H])c6[H])c(C(=O)N([H])[H])c5N([H])[H])C4([H])[H])c3[H])C([H])([H])[H])c([H])c([H])c2C1([H])[H]

$$$$
71:0:0
     RDKit          3D

 97105  0  0  1  0  0  0  0  0999 V2000
  -31.4460  -23.5510   19.7400 C   0  0  0  0  0  3  0  0  0  0  0  0
  -30.6850  -24.6010   20.2890 C   0  0  0  0  0  3  0  0  0  0  0  0
  -29.4010  -22.3140   19.2870 C   0  0  0  0  0  3  0  0  0  0  0  0
  -30.8160  -22.3910   19.2310 C   0  0  0  0  0  0  0  0  0  0  0  0
  -29.2780  -24.5140   20.3480 C   0  0  0  0  0  0  0  0  0  0  0  0
  -28.6370  -23.3620   19.8370 C   0  0  0  0  0  0  0  0  0  0  0  0
  -27.2750  -23.2410   19.8660 O   0  0  0  0  0  0  0  0  0  0  0  0
  -26.9570  -22.4200   19.5040 H   0  0  0  0  0  0  0  0  0  0  0  0
  -31.6620  -21.2840   18.6720 C   0  0  0  0  0  0  0  0  0  0  0  0
  -32.8990  -21.3140   18.7140 O   0  0  0  0  0  0  0  0  0  0  0  0
  -30.9630  -20.0430   18.0490 C   0  0  0  0  0  0  0  0  0  0  0  0
  -31.2190  -18.9140   18.7280 N   0  0  0  0  0  0  0  0  0  0  0  0
  -30.2270  -20.1070   17.0570 O   0  0  0  0  0  0  0  0  0  0  0  0
  -31.8800  -18.9920   19.4920 H   0  0  0  0  0  0  0  0  0  0  0  0
  -30.5540  -17.6310   18.5140 C   0  0  0  0  0  2  0  0  0  0  0  0
  -29.5120  -17.3580   19.6160 C   0  0  0  0  0  2  0  0  0  0  0  0
  -30.1100  -16.8600   20.9550 C   0  0  0  0  0  2  0  0  0  0  0  0
  -30.6320  -14.4540   20.5520 C   0  0  0  0  0  0  0  0  0  0  0  0
  -30.3440  -12.3260   19.3600 C   0  0  0  0  0  2  0  0  0  0  0  0
  -29.4000  -12.5620   18.1610 C   0  0  0  0  0  2  0  0  0  0  0  0
  -27.9250  -12.4240   18.5870 C   0  0  0  0  0  2  0  0  0  0  0  0
  -27.5890  -13.2400   19.8630 C   0  0  0  0  0  3  0  0  0  0  0  0
  -28.6380  -12.9750   20.9670 C   0  0  0  0  0  2  0  0  0  0  0  0
  -29.9720  -13.2770   20.4150 N   0  0  0  0  0  0  0  0  0  0  0  0
  -31.7340  -14.6860   20.0490 O   0  0  0  0  0  0  0  0  0  0  0  0
  -29.9060  -15.4240   21.1210 N   0  0  0  0  0  0  0  0  0  0  0  0
  -29.0290  -15.1320   21.5250 H   0  0  0  0  0  0  0  0  0  0  0  0
  -25.1780  -13.8460   20.5410 C   0  0  0  0  0  0  0  0  0  0  0  0
  -24.1090  -13.0700   20.9050 C   0  0  0  0  0  0  0  0  0  0  0  0
  -24.5760  -11.7200   20.8850 C   0  0  0  0  0  0  0  0  0  0  0  0
  -26.2300  -12.9670   20.3280 N   0  0  0  0  0  0  0  0  0  0  0  0
  -25.8680  -11.6850   20.5870 N   0  0  0  0  0  0  0  0  0  0  0  0
  -23.8540  -10.4560   21.0770 C   0  0  0  0  0  0  0  0  0  0  0  0
  -24.3000   -9.4850   22.0010 C   0  0  0  0  0  3  0  0  0  0  0  0
  -23.5800   -8.2830   22.1780 C   0  0  0  0  0  3  0  0  0  0  0  0
  -22.4020   -8.0460   21.4330 C   0  0  0  0  0  0  0  0  0  0  0  0
  -21.9760   -9.0050   20.4980 C   0  0  0  0  0  3  0  0  0  0  0  0
  -22.6960  -10.1990   20.3180 C   0  0  0  0  0  3  0  0  0  0  0  0
  -21.6510   -6.8980   21.5220 O   0  0  0  0  0  0  0  0  0  0  0  0
  -21.6300   -6.1370   22.6630 C   0  0  0  0  0  0  0  0  0  0  0  0
  -21.2470   -6.6760   23.9100 C   0  0  0  0  0  3  0  0  0  0  0  0
  -21.1740   -5.8440   25.0450 C   0  0  0  0  0  3  0  0  0  0  0  0
  -21.4740   -4.4730   24.9330 C   0  0  0  0  0  0  0  0  0  0  0  0
  -21.8510   -3.9330   23.6910 C   0  0  0  0  0  3  0  0  0  0  0  0
  -21.9270   -4.7640   22.5590 C   0  0  0  0  0  0  0  0  0  0  0  0
  -22.2720   -4.2340   21.3610 F   0  0  0  0  0  0  0  0  0  0  0  0
  -21.3950   -3.6700   26.0210 F   0  0  0  0  0  0  0  0  0  0  0  0
  -22.7080  -13.5440   21.1680 C   0  0  0  0  0  0  0  0  0  0  0  0
  -21.9800  -12.8460   22.0330 N   0  0  0  0  0  0  0  0  0  0  0  0
  -22.2690  -14.5640   20.6420 O   0  0  0  0  0  0  0  0  0  0  0  0
  -22.3480  -12.0190   22.4790 H   0  0  0  0  0  0  0  0  0  0  0  0
  -21.0390  -13.1450   22.2540 H   0  0  0  0  0  0  0  0  0  0  0  0
  -25.3390  -15.2150   20.3560 N   0  0  0  0  0  0  0  0  0  0  0  0
  -24.5690  -15.8680   20.4390 H   0  0  0  0  0  0  0  0  0  0  0  0
  -26.1950  -15.6530   20.0380 H   0  0  0  0  0  0  0  0  0  0  0  0
  -28.4860  -25.6540   20.9710 C   0  0  0  0  0  2  0  0  0  0  0  0
  -28.4490  -26.8000   20.1260 O   0  0  0  0  0  0  0  0  0  0  0  0
  -24.6190  -31.9110   23.2610 C   0  0  0  0  0  0  0  0  0  0  0  0
  -27.2700  -27.4970   20.1750 C   0  0  0  0  0  0  0  0  0  0  0  0
  -23.4080  -30.4940   21.6330 C   0  0  0  0  0  3  0  0  0  0  0  0
  -24.8590  -28.9560   20.2090 C   0  0  0  0  0  0  0  0  0  0  0  0
  -25.9280  -30.8690   21.4190 C   0  0  0  0  0  2  0  0  0  0  0  0
  -26.0160  -29.4980   20.7850 C   0  0  0  0  0  0  0  0  0  0  0  0
  -27.2270  -28.7760   20.7640 C   0  0  0  0  0  3  0  0  0  0  0  0
  -26.1010  -26.9540   19.6030 C   0  0  0  0  0  3  0  0  0  0  0  0
  -24.8930  -27.6790   19.6190 C   0  0  0  0  0  3  0  0  0  0  0  0
  -23.6110  -29.8070   20.2570 C   0  0  0  0  0  2  0  0  0  0  0  0
  -24.6700  -31.1020   22.1650 N   0  0  0  0  0  0  0  0  0  0  0  0
  -23.5360  -32.2030   23.7860 O   0  0  0  0  0  0  0  0  0  0  0  0
  -22.7650  -29.4740   22.6010 C   0  0  0  0  0  0  0  0  0  0  0  0
  -21.4430  -29.2820   22.4730 N   0  0  0  0  0  0  0  0  0  0  0  0
  -23.4540  -28.8580   23.4180 O   0  0  0  0  0  0  0  0  0  0  0  0
  -20.9500  -29.8310   21.7810 H   0  0  0  0  0  0  0  0  0  0  0  0
  -18.0780  -28.0600   22.9570 C   0  0  0  0  0  0  0  0  0  0  0  0
  -20.6300  -28.3420   23.2450 C   0  0  0  0  0  3  0  0  0  0  0  0
  -20.7500  -26.9080   22.6780 C   0  0  0  0  0  2  0  0  0  0  0  0
  -19.6570  -26.5690   21.6590 C   0  0  0  0  0  2  0  0  0  0  0  0
  -18.2700  -26.7070   22.2930 C   0  0  0  0  0  2  0  0  0  0  0  0
  -19.1860  -28.8350   23.3890 C   0  0  0  0  0  0  0  0  0  0  0  0
  -18.9530  -30.1010   23.9680 C   0  0  0  0  0  3  0  0  0  0  0  0
  -17.6430  -30.5940   24.1200 C   0  0  0  0  0  3  0  0  0  0  0  0
  -16.5490  -29.8150   23.7060 C   0  0  0  0  0  3  0  0  0  0  0  0
  -16.7660  -28.5500   23.1310 C   0  0  0  0  0  3  0  0  0  0  0  0
  -25.9090  -32.5340   23.8810 C   0  0  0  0  0  3  0  0  0  0  0  0
  -25.6070  -33.9330   24.2080 N   0  0  0  0  0  0  0  0  0  0  0  0
  -25.9360  -34.9810   23.4400 C   0  0  0  0  0  0  0  0  0  0  0  0
  -26.6010  -34.8700   22.4060 O   0  0  0  0  0  0  0  0  0  0  0  0
  -25.0160  -34.0930   25.0100 H   0  0  0  0  0  0  0  0  0  0  0  0
  -24.2030  -36.7680   23.0840 C   0  0  0  0  0  1  0  0  0  0  0  0
  -25.4510  -36.3710   23.8900 C   0  0  0  0  0  3  0  0  0  0  0  0
  -27.5940  -37.2600   24.6960 C   0  0  0  0  0  1  0  0  0  0  0  0
  -26.4830  -37.4240   23.7620 N   0  0  0  0  0  0  0  0  0  0  0  0
  -26.0780  -38.3440   23.9070 H   0  0  0  0  0  0  0  0  0  0  0  0
  -26.4300  -31.7630   25.1540 C   0  0  1  0  0  0  0  0  0  0  0  0
  -25.3420  -31.5270   26.2280 C   0  0  0  0  0  1  0  0  0  0  0  0
  -27.0090  -30.3840   24.7590 C   0  0  0  0  0  1  0  0  0  0  0  0
  -27.5880  -32.5540   25.8110 C   0  0  0  0  0  1  0  0  0  0  0  0
  1  2  1  0
  2  5  2  0
  3  6  2  0
  4  3  1  0
  4  1  2  0
  5 56  1  0
  6  7  1  0
  6  5  1  0
  8  7  1  0
  9 10  2  0
  9  4  1  0
 11  9  1  0
 11 12  1  0
 12 14  1  0
 13 11  2  0
 15 12  1  0
 15 16  1  0
 16 17  1  0
 17 26  1  0
 18 26  1  0
 19 24  1  0
 20 21  1  0
 20 19  1  0
 22 21  1  0
 22 31  1  0
 22 23  1  0
 24 18  1  0
 24 23  1  0
 25 18  2  0
 26 27  1  0
 28 29  2  0
 29 48  1  0
 30 29  1  0
 30 33  1  0
 31 28  1  0
 31 32  1  0
 32 30  2  0
 33 34  1  0
 34 35  2  0
 36 39  1  0
 36 35  1  0
 37 36  2  0
 38 37  1  0
 38 33  2  0
 39 40  1  0
 40 41  1  0
 41 42  2  0
 43 42  1  0
 43 47  1  0
 44 43  2  0
 45 40  2  0
 45 44  1  0
 46 45  1  0
 48 49  1  0
 49 52  1  0
 49 51  1  0
 50 48  2  0
 53 54  1  0
 53 28  1  0
 55 53  1  0
 57 59  1  0
 57 56  1  0
 58 69  2  0
 59 64  1  0
 60 68  1  0
 60 70  1  0
 61 67  1  0
 61 63  1  0
 62 68  1  0
 63 62  1  0
 64 63  2  0
 65 66  1  0
 65 59  2  0
 66 61  2  0
 67 60  1  0
 68 58  1  0
 70 72  2  0
 71 70  1  0
 73 71  1  0
 74 83  2  0
 74 79  1  0
 75 71  1  0
 75 79  1  0
 76 75  1  0
 77 78  1  0
 77 76  1  0
 78 74  1  0
 79 80  2  0
 80 81  1  0
 82 81  2  0
 83 82  1  0
 84 58  1  0
 84 85  1  0
 84 94  1  0
 85 88  1  0
 86 90  1  0
 86 85  1  0
 87 86  2  0
 90 89  1  0
 92 90  1  0
 92 93  1  0
 92 91  1  0
 94 97  1  1
 94 95  1  0
 96 94  1  0
M  ISO  4  18 100  26 100  56 101  57 101
M  END
>  <TORSDO>  (72) 
F 23

>  <SCORE>  (72) 
-13.021

>  <name>  (72) 
71

>  <ligand_id>  (72) 
71

>  <original_smiles>  (72) 
[H]Oc1c([H])c(C(=O)C(=O)N([H])C([H])([H])C([H])([H])C([H])([H])N([H])C(=O)N2C([H])([H])C([H])([H])C([H])([H])C([H])(n3nc(-c4c([H])c([H])c(Oc5c([H])c([H])c(F)c([H])c5F)c([H])c4[H])c(C(=O)N([H])[H])c3N([H])[H])C2([H])[H])c([H])c([H])c1C([H])([H])Oc1c([H])c([H])c2c(c1[H])C([H])([H])N(C(=O)C([H])(N([H])C(=O)C([H])(N([H])C([H])([H])[H])C([H])([H])[H])C(C([H])([H])[H])(C([H])([H])[H])C([H])([H])[H])C([H])(C(=O)N([H])C1([H])c3c([H])c([H])c([H])c([H])c3C([H])([H])C([H])([H])C1([H])[H])C2([H])[H]

>  <smiles>  (72) 
[H]Oc1c([H])c(C(=O)C(=O)N([H])C([H])([H])C([H])([H])C([H])([H])N([H])C(=O)N2C([H])([H])C([H])([H])C([H])([H])C([H])(n3nc(-c4c([H])c([H])c(Oc5c([H])c([H])c(F)c([H])c5F)c([H])c4[H])c(C(=O)N([H])[H])c3N([H])[H])C2([H])[H])c([H])c([H])c1C([H])([H])Oc1c([H])c([H])c2c(c1[H])C([H])([H])N(C(=O)C([H])(N([H])C(=O)C([H])(N([H])C([H])([H])[H])C([H])([H])[H])C(C([H])([H])[H])(C([H])([H])[H])C([H])([H])[H])C([H])(C(=O)N([H])C1([H])c3c([H])c([H])c([H])c([H])c3C([H])([H])C([H])([H])C1([H])[H])C2([H])[H]

$$$$
72:0:0
     RDKit          3D

 93102  0  0  1  0  0  0  0  0999 V2000
  -31.1640  -18.8010   17.4000 C   0  0  0  0  0  2  0  0  0  0  0  0
  -30.2550  -20.0400   17.4630 C   0  0  0  0  0  2  0  0  0  0  0  0
  -31.5250  -18.2510   18.7950 C   0  0  0  0  0  2  0  0  0  0  0  0
  -29.8890  -20.6600   20.3770 C   0  0  0  0  0  2  0  0  0  0  0  0
  -29.0090  -19.8240   18.3600 C   0  0  0  0  0  3  0  0  0  0  0  0
  -29.3970  -19.3170   19.7550 C   0  0  0  0  0  3  0  0  0  0  0  0
  -30.2730  -18.0050   19.6620 C   0  0  0  0  0  3  0  0  0  0  0  0
  -28.2820  -21.1520   18.6580 C   0  0  0  0  0  3  0  0  0  0  0  0
  -26.7750  -20.9300   18.8760 C   0  0  0  0  0  1  0  0  0  0  0  0
  -28.9260  -21.7070   19.8820 N   0  0  2  0  0  4  0  0  0  0  0  0
  -28.2080  -21.7540   20.5910 H   0  0  0  0  0  0  0  0  0  0  0  0
  -30.5680  -17.2200   20.9900 C   0  0  0  0  0  2  0  0  0  0  0  0
  -29.9640  -15.7690   21.1650 C   0  0  0  0  0  2  0  0  0  0  0  0
  -30.6600  -14.5540   20.4690 C   0  0  0  0  0  0  0  0  0  0  0  0
  -30.3720  -12.3920   19.2860 C   0  0  0  0  0  2  0  0  0  0  0  0
  -29.4310  -12.6170   18.0800 C   0  0  0  0  0  2  0  0  0  0  0  0
  -27.9550  -12.4780   18.4980 C   0  0  0  0  0  2  0  0  0  0  0  0
  -27.6180  -13.2750   19.7870 C   0  0  0  0  0  3  0  0  0  0  0  0
  -28.6770  -13.0440   20.8900 C   0  0  0  0  0  2  0  0  0  0  0  0
  -29.9990  -13.3640   20.3260 N   0  0  0  0  0  0  0  0  0  0  0  0
  -31.7830  -14.7240   19.9880 O   0  0  0  0  0  0  0  0  0  0  0  0
  -25.2120  -13.8730   20.4710 C   0  0  0  0  0  0  0  0  0  0  0  0
  -24.1420  -13.1040   20.8340 C   0  0  0  0  0  0  0  0  0  0  0  0
  -24.6050  -11.7510   20.8200 C   0  0  0  0  0  0  0  0  0  0  0  0
  -26.2620  -12.9920   20.2570 N   0  0  0  0  0  0  0  0  0  0  0  0
  -25.8990  -11.7110   20.5220 N   0  0  0  0  0  0  0  0  0  0  0  0
  -23.8790  -10.4900   21.0160 C   0  0  0  0  0  0  0  0  0  0  0  0
  -24.3020   -9.5330   21.9640 C   0  0  0  0  0  3  0  0  0  0  0  0
  -23.5760   -8.3370   22.1460 C   0  0  0  0  0  3  0  0  0  0  0  0
  -22.4150   -8.0870   21.3780 C   0  0  0  0  0  0  0  0  0  0  0  0
  -22.0140   -9.0310   20.4180 C   0  0  0  0  0  3  0  0  0  0  0  0
  -22.7400  -10.2200   20.2340 C   0  0  0  0  0  3  0  0  0  0  0  0
  -21.6640   -6.9400   21.4650 O   0  0  0  0  0  0  0  0  0  0  0  0
  -21.5950   -6.2080   22.6250 C   0  0  0  0  0  0  0  0  0  0  0  0
  -21.1410   -6.7760   23.8370 C   0  0  0  0  0  3  0  0  0  0  0  0
  -21.0230   -5.9730   24.9900 C   0  0  0  0  0  3  0  0  0  0  0  0
  -21.3470   -4.6040   24.9310 C   0  0  0  0  0  0  0  0  0  0  0  0
  -21.7970   -4.0370   23.7240 C   0  0  0  0  0  3  0  0  0  0  0  0
  -21.9170   -4.8370   22.5740 C   0  0  0  0  0  0  0  0  0  0  0  0
  -22.3280   -4.2810   21.4090 F   0  0  0  0  0  0  0  0  0  0  0  0
  -21.2290   -3.8310   26.0340 F   0  0  0  0  0  0  0  0  0  0  0  0
  -22.7410  -13.5800   21.0930 C   0  0  0  0  0  0  0  0  0  0  0  0
  -22.0080  -12.8820   21.9510 N   0  0  0  0  0  0  0  0  0  0  0  0
  -22.3030  -14.6030   20.5660 O   0  0  0  0  0  0  0  0  0  0  0  0
  -22.3820  -12.0580   22.3990 H   0  0  0  0  0  0  0  0  0  0  0  0
  -21.0660  -13.1720   22.1680 H   0  0  0  0  0  0  0  0  0  0  0  0
  -25.3860  -15.2420   20.2800 N   0  0  0  0  0  0  0  0  0  0  0  0
  -24.6290  -15.9140   20.3570 H   0  0  0  0  0  0  0  0  0  0  0  0
  -26.2550  -15.6600   19.9710 H   0  0  0  0  0  0  0  0  0  0  0  0
  -29.4500  -23.1070   19.7230 C   0  0  0  0  0  2  0  0  0  0  0  0
  -28.3660  -24.2270   19.9040 C   0  0  0  0  0  2  0  0  0  0  0  0
  -28.7520  -25.6280   19.3450 C   0  0  0  0  0  2  0  0  0  0  0  0
  -28.4790  -26.7460   20.2090 O   0  0  0  0  0  0  0  0  0  0  0  0
  -24.6070  -31.8800   23.2560 C   0  0  0  0  0  0  0  0  0  0  0  0
  -27.2800  -27.4350   20.1680 C   0  0  0  0  0  0  0  0  0  0  0  0
  -23.4110  -30.4770   21.6050 C   0  0  0  0  0  3  0  0  0  0  0  0
  -24.8730  -28.9390   20.1820 C   0  0  0  0  0  0  0  0  0  0  0  0
  -25.9370  -30.8300   21.4280 C   0  0  0  0  0  2  0  0  0  0  0  0
  -26.0240  -29.4590   20.7850 C   0  0  0  0  0  0  0  0  0  0  0  0
  -27.2230  -28.7100   20.7840 C   0  0  0  0  0  3  0  0  0  0  0  0
  -26.1080  -26.9260   19.5600 C   0  0  0  0  0  3  0  0  0  0  0  0
  -24.9100  -27.6710   19.5730 C   0  0  0  0  0  3  0  0  0  0  0  0
  -23.6300  -29.8030   20.2230 C   0  0  0  0  0  2  0  0  0  0  0  0
  -24.6700  -31.0760   22.1570 N   0  0  0  0  0  0  0  0  0  0  0  0
  -23.5190  -32.1680   23.7720 O   0  0  0  0  0  0  0  0  0  0  0  0
  -22.7550  -29.4560   22.5610 C   0  0  0  0  0  0  0  0  0  0  0  0
  -21.4290  -29.2790   22.4280 N   0  0  0  0  0  0  0  0  0  0  0  0
  -23.4330  -28.8270   23.3780 O   0  0  0  0  0  0  0  0  0  0  0  0
  -20.9460  -29.8420   21.7400 H   0  0  0  0  0  0  0  0  0  0  0  0
  -18.0480  -28.0970   22.9130 C   0  0  0  0  0  0  0  0  0  0  0  0
  -20.6070  -28.3390   23.1890 C   0  0  0  0  0  3  0  0  0  0  0  0
  -20.7040  -26.9130   22.6000 C   0  0  0  0  0  2  0  0  0  0  0  0
  -19.6000  -26.6020   21.5830 C   0  0  0  0  0  2  0  0  0  0  0  0
  -18.2180  -26.7520   22.2250 C   0  0  0  0  0  2  0  0  0  0  0  0
  -19.1700  -28.8470   23.3510 C   0  0  0  0  0  0  0  0  0  0  0  0
  -18.9610  -30.1070   23.9550 C   0  0  0  0  0  3  0  0  0  0  0  0
  -17.6600  -30.6150   24.1260 C   0  0  0  0  0  3  0  0  0  0  0  0
  -16.5510  -29.8620   23.7010 C   0  0  0  0  0  3  0  0  0  0  0  0
  -16.7450  -28.6060   23.1030 C   0  0  0  0  0  3  0  0  0  0  0  0
  -25.8910  -32.5030   23.8930 C   0  0  0  0  0  3  0  0  0  0  0  0
  -25.5880  -33.9020   24.2210 N   0  0  0  0  0  0  0  0  0  0  0  0
  -25.9150  -34.9520   23.4560 C   0  0  0  0  0  0  0  0  0  0  0  0
  -26.5770  -34.8440   22.4210 O   0  0  0  0  0  0  0  0  0  0  0  0
  -25.0050  -34.0620   25.0290 H   0  0  0  0  0  0  0  0  0  0  0  0
  -24.1830  -36.7420   23.0980 C   0  0  0  0  0  1  0  0  0  0  0  0
  -25.4280  -36.3420   23.9080 C   0  0  0  0  0  3  0  0  0  0  0  0
  -27.5640  -37.2340   24.7280 C   0  0  0  0  0  1  0  0  0  0  0  0
  -26.4580  -37.3960   23.7850 N   0  0  0  0  0  0  0  0  0  0  0  0
  -26.0530  -38.3160   23.9250 H   0  0  0  0  0  0  0  0  0  0  0  0
  -26.3950  -31.7290   25.1750 C   0  0  1  0  0  0  0  0  0  0  0  0
  -25.2920  -31.4930   26.2340 C   0  0  0  0  0  1  0  0  0  0  0  0
  -26.9780  -30.3510   24.7830 C   0  0  0  0  0  1  0  0  0  0  0  0
  -27.5370  -32.5230   25.8510 C   0  0  0  0  0  1  0  0  0  0  0  0
  1  2  1  0
  1  3  1  0
  3  7  1  0
  5  2  1  0
  5  8  1  0
  5  6  1  0
  6  4  1  0
  7  6  1  0
  7 12  1  0
  8  9  1  0
  8 10  1  0
 10  4  1  0
 10 11  1  1
 12 13  1  0
 14 13  1  0
 15 20  1  0
 16 17  1  0
 16 15  1  0
 18 17  1  0
 18 25  1  0
 18 19  1  0
 20 14  1  0
 20 19  1  0
 21 14  2  0
 22 23  2  0
 23 42  1  0
 24 23  1  0
 24 27  1  0
 25 22  1  0
 25 26  1  0
 26 24  2  0
 27 28  1  0
 28 29  2  0
 30 33  1  0
 30 29  1  0
 31 30  2  0
 32 31  1  0
 32 27  2  0
 33 34  1  0
 34 35  1  0
 35 36  2  0
 37 36  1  0
 37 41  1  0
 38 37  2  0
 39 34  2  0
 39 38  1  0
 40 39  1  0
 42 43  1  0
 43 46  1  0
 43 45  1  0
 44 42  2  0
 47 48  1  0
 47 22  1  0
 49 47  1  0
 50 10  1  0
 50 51  1  0
 52 51  1  0
 52 53  1  0
 54 65  2  0
 55 53  1  0
 55 60  1  0
 56 64  1  0
 56 66  1  0
 57 63  1  0
 57 59  1  0
 58 64  1  0
 59 58  1  0
 60 59  2  0
 61 62  1  0
 61 55  2  0
 62 57  2  0
 63 56  1  0
 64 54  1  0
 66 68  2  0
 67 66  1  0
 69 67  1  0
 70 79  2  0
 70 75  1  0
 71 67  1  0
 71 75  1  0
 72 71  1  0
 73 74  1  0
 73 72  1  0
 74 70  1  0
 75 76  2  0
 76 77  1  0
 78 77  2  0
 79 78  1  0
 80 54  1  0
 80 81  1  0
 80 90  1  0
 81 84  1  0
 82 86  1  0
 82 81  1  0
 83 82  2  0
 86 85  1  0
 88 86  1  0
 88 89  1  0
 88 87  1  0
 90 93  1  1
 90 91  1  0
 92 90  1  0
M  ISO  4  13 100  14 100  52 101  53 101
M  END
>  <TORSDO>  (73) 
F 21

>  <SCORE>  (73) 
-13.578

>  <name>  (73) 
72

>  <ligand_id>  (73) 
72

>  <original_smiles>  (73) 
[H]c1c([H])c([H])c2c(c1[H])C([H])([H])C([H])([H])C([H])([H])C2([H])N([H])C(=O)C1([H])N(C(=O)C([H])(N([H])C(=O)C([H])(N([H])C([H])([H])[H])C([H])([H])[H])C(C([H])([H])[H])(C([H])([H])[H])C([H])([H])[H])C([H])([H])c2c([H])c(OC([H])([H])C([H])([H])C([H])([H])[N+]3([H])C([H])([H])C4([H])C([H])(C([H])([H])C([H])([H])C(=O)N5C([H])([H])C([H])([H])C([H])([H])C([H])(n6nc(-c7c([H])c([H])c(Oc8c([H])c([H])c(F)c([H])c8F)c([H])c7[H])c(C(=O)N([H])[H])c6N([H])[H])C5([H])[H])C([H])([H])C([H])([H])C([H])([H])C4([H])C3([H])C([H])([H])[H])c([H])c([H])c2C1([H])[H]

>  <smiles>  (73) 
[H]c1c([H])c([H])c2c(c1[H])C([H])([H])C([H])([H])C([H])([H])C2([H])N([H])C(=O)C1([H])N(C(=O)C([H])(N([H])C(=O)C([H])(N([H])C([H])([H])[H])C([H])([H])[H])C(C([H])([H])[H])(C([H])([H])[H])C([H])([H])[H])C([H])([H])c2c([H])c(OC([H])([H])C([H])([H])C([H])([H])[N+]3([H])C([H])([H])C4([H])C([H])(C([H])([H])C([H])([H])C(=O)N5C([H])([H])C([H])([H])C([H])([H])C([H])(n6nc(-c7c([H])c([H])c(Oc8c([H])c([H])c(F)c([H])c8F)c([H])c7[H])c(C(=O)N([H])[H])c6N([H])[H])C5([H])[H])C([H])([H])C([H])([H])C([H])([H])C4([H])C3([H])C([H])([H])[H])c([H])c([H])c2C1([H])[H]

$$$$
73:0:0
     RDKit          3D

100111  0  0  1  0  0  0  0  0999 V2000
  -30.2510  -15.8070   20.4780 C   0  0  0  0  0  3  0  0  0  0  0  0
  -29.0610  -16.3260   20.8290 C   0  0  0  0  0  3  0  0  0  0  0  0
  -30.2720  -23.1740   18.6450 C   0  0  0  0  0  0  0  0  0  0  0  0
  -28.7780  -17.6610   20.1460 C   0  0  0  0  0  2  0  0  0  0  0  0
  -31.5130  -22.3720   18.9410 C   0  0  0  0  0  2  0  0  0  0  0  0
  -29.2570  -22.2950   17.9370 C   0  0  0  0  0  2  0  0  0  0  0  0
  -31.8280  -17.8470   20.6040 C   0  0  0  0  0  2  0  0  0  0  0  0
  -32.2800  -19.1500   19.8860 C   0  0  0  0  0  2  0  0  0  0  0  0
  -31.0050  -16.8710   19.6940 C   0  0  0  0  0  3  0  0  0  0  0  0
  -29.8410  -17.5900   19.0050 C   0  0  0  0  0  3  0  0  0  0  0  0
  -31.3340  -21.0180   18.2310 C   0  0  0  0  0  3  0  0  0  0  0  0
  -31.0900  -19.7950   19.1440 C   0  0  0  0  0  3  0  0  0  0  0  0
  -29.2830  -19.7480   17.6160 C   0  0  0  0  0  3  0  0  0  0  0  0
  -30.0380  -21.0980   17.3600 C   0  0  1  0  0  0  0  0  0  0  0  0
  -30.3600  -18.8130   18.2090 C   0  0  2  0  0  0  0  0  0  0  0  0
  -28.4010  -19.1960   16.4730 C   0  0  0  0  0  1  0  0  0  0  0  0
  -30.3660  -21.3960   15.8600 C   0  0  0  0  0  1  0  0  0  0  0  0
  -31.3050  -18.2610   17.0870 C   0  0  0  0  0  1  0  0  0  0  0  0
  -30.1540  -24.4100   18.9290 N   0  0  0  0  0  0  0  0  0  0  0  0
  -30.8270  -14.4510   20.4800 C   0  0  0  0  0  0  0  0  0  0  0  0
  -30.3900  -12.3450   19.3070 C   0  0  0  0  0  2  0  0  0  0  0  0
  -29.4690  -12.6080   18.1040 C   0  0  0  0  0  2  0  0  0  0  0  0
  -27.9900  -12.4760   18.5190 C   0  0  0  0  0  2  0  0  0  0  0  0
  -27.6590  -13.2730   19.8090 C   0  0  0  0  0  3  0  0  0  0  0  0
  -28.7210  -13.0240   20.9030 C   0  0  0  0  0  2  0  0  0  0  0  0
  -30.0400  -13.3390   20.3380 N   0  0  0  0  0  0  0  0  0  0  0  0
  -32.0240  -14.3820   20.2170 O   0  0  0  0  0  0  0  0  0  0  0  0
  -25.2530  -13.8800   20.4800 C   0  0  0  0  0  0  0  0  0  0  0  0
  -24.1890  -13.1060   20.8510 C   0  0  0  0  0  0  0  0  0  0  0  0
  -24.6470  -11.7530   20.8250 C   0  0  0  0  0  0  0  0  0  0  0  0
  -26.3030  -12.9960   20.2710 N   0  0  0  0  0  0  0  0  0  0  0  0
  -25.9410  -11.7130   20.5310 N   0  0  0  0  0  0  0  0  0  0  0  0
  -23.9120  -10.4980   21.0110 C   0  0  0  0  0  0  0  0  0  0  0  0
  -24.3380   -9.5370   21.9500 C   0  0  0  0  0  3  0  0  0  0  0  0
  -23.6060   -8.3410   22.1360 C   0  0  0  0  0  3  0  0  0  0  0  0
  -22.4320   -8.1070   21.3800 C   0  0  0  0  0  0  0  0  0  0  0  0
  -22.0260   -9.0600   20.4300 C   0  0  0  0  0  3  0  0  0  0  0  0
  -22.7560  -10.2430   20.2430 C   0  0  0  0  0  3  0  0  0  0  0  0
  -21.6770   -6.9630   21.4660 O   0  0  0  0  0  0  0  0  0  0  0  0
  -21.6190   -6.2270   22.6240 C   0  0  0  0  0  0  0  0  0  0  0  0
  -21.1840   -6.7910   23.8430 C   0  0  0  0  0  3  0  0  0  0  0  0
  -21.0700   -5.9800   24.9920 C   0  0  0  0  0  3  0  0  0  0  0  0
  -21.3790   -4.6080   24.9190 C   0  0  0  0  0  0  0  0  0  0  0  0
  -21.8140   -4.0470   23.7050 C   0  0  0  0  0  3  0  0  0  0  0  0
  -21.9260   -4.8530   22.5600 C   0  0  0  0  0  0  0  0  0  0  0  0
  -22.3130   -4.3010   21.3840 F   0  0  0  0  0  0  0  0  0  0  0  0
  -21.2690   -3.8310   26.0200 F   0  0  0  0  0  0  0  0  0  0  0  0
  -22.7970  -13.5900   21.1210 C   0  0  0  0  0  0  0  0  0  0  0  0
  -22.0680  -12.9060   21.9950 N   0  0  0  0  0  0  0  0  0  0  0  0
  -22.3630  -14.6080   20.5870 O   0  0  0  0  0  0  0  0  0  0  0  0
  -22.4340  -12.0820   22.4510 H   0  0  0  0  0  0  0  0  0  0  0  0
  -21.1250  -13.2010   22.2020 H   0  0  0  0  0  0  0  0  0  0  0  0
  -25.4050  -15.2510   20.2840 N   0  0  0  0  0  0  0  0  0  0  0  0
  -24.6270  -15.8910   20.3900 H   0  0  0  0  0  0  0  0  0  0  0  0
  -26.2440  -15.6930   19.9330 H   0  0  0  0  0  0  0  0  0  0  0  0
  -28.0270  -15.8020   21.5010 O   0  0  0  0  0  0  0  0  0  0  0  0
  -27.2960  -16.4060   21.4640 H   0  0  0  0  0  0  0  0  0  0  0  0
  -28.9530  -25.1020   18.4960 C   0  0  0  0  0  2  0  0  0  0  0  0
  -29.0410  -26.6010   18.8090 C   0  0  0  0  0  2  0  0  0  0  0  0
  -28.6490  -26.8850   20.1570 O   0  0  0  0  0  0  0  0  0  0  0  0
  -24.6470  -31.9200   23.2600 C   0  0  0  0  0  0  0  0  0  0  0  0
  -27.4330  -27.5180   20.2570 C   0  0  0  0  0  0  0  0  0  0  0  0
  -23.4940  -30.4770   21.6120 C   0  0  0  0  0  3  0  0  0  0  0  0
  -25.0010  -28.9420   20.2510 C   0  0  0  0  0  0  0  0  0  0  0  0
  -26.0150  -30.8780   21.4610 C   0  0  0  0  0  2  0  0  0  0  0  0
  -26.1370  -29.4970   20.8540 C   0  0  0  0  0  0  0  0  0  0  0  0
  -27.3550  -28.7840   20.8740 C   0  0  0  0  0  3  0  0  0  0  0  0
  -26.2740  -26.9570   19.6790 C   0  0  0  0  0  3  0  0  0  0  0  0
  -25.0590  -27.6610   19.6750 C   0  0  0  0  0  3  0  0  0  0  0  0
  -23.7440  -29.7780   20.2500 C   0  0  0  0  0  2  0  0  0  0  0  0
  -24.7350  -31.1050   22.1740 N   0  0  0  0  0  0  0  0  0  0  0  0
  -23.5470  -32.2050   23.7540 O   0  0  0  0  0  0  0  0  0  0  0  0
  -22.8410  -29.4560   22.5730 C   0  0  0  0  0  0  0  0  0  0  0  0
  -21.5210  -29.2670   22.4320 N   0  0  0  0  0  0  0  0  0  0  0  0
  -23.5200  -28.8360   23.3930 O   0  0  0  0  0  0  0  0  0  0  0  0
  -21.0360  -29.8170   21.7380 H   0  0  0  0  0  0  0  0  0  0  0  0
  -18.1380  -28.0970   22.9350 C   0  0  0  0  0  0  0  0  0  0  0  0
  -20.7010  -28.3280   23.2000 C   0  0  0  0  0  3  0  0  0  0  0  0
  -20.7890  -26.9030   22.6090 C   0  0  0  0  0  2  0  0  0  0  0  0
  -19.6810  -26.5980   21.5960 C   0  0  0  0  0  2  0  0  0  0  0  0
  -18.3030  -26.7510   22.2460 C   0  0  0  0  0  2  0  0  0  0  0  0
  -19.2670  -28.8440   23.3670 C   0  0  0  0  0  0  0  0  0  0  0  0
  -19.0600  -30.1050   23.9690 C   0  0  0  0  0  3  0  0  0  0  0  0
  -17.7620  -30.6150   24.1450 C   0  0  0  0  0  3  0  0  0  0  0  0
  -16.6490  -29.8650   23.7280 C   0  0  0  0  0  3  0  0  0  0  0  0
  -16.8390  -28.6080   23.1250 C   0  0  0  0  0  3  0  0  0  0  0  0
  -25.9140  -32.5680   23.9050 C   0  0  0  0  0  3  0  0  0  0  0  0
  -26.4160  -31.8150   25.1970 C   0  0  1  0  0  0  0  0  0  0  0  0
  -25.3010  -31.5660   26.2390 C   0  0  0  0  0  1  0  0  0  0  0  0
  -27.0350  -30.4460   24.8270 C   0  0  0  0  0  1  0  0  0  0  0  0
  -27.5400  -32.6310   25.8770 C   0  0  0  0  0  1  0  0  0  0  0  0
  -25.5830  -33.9650   24.2130 N   0  0  0  0  0  0  0  0  0  0  0  0
  -25.9190  -35.0090   23.4440 C   0  0  0  0  0  0  0  0  0  0  0  0
  -26.6130  -34.8990   22.4290 O   0  0  0  0  0  0  0  0  0  0  0  0
  -24.9650  -34.1200   24.9960 H   0  0  0  0  0  0  0  0  0  0  0  0
  -24.1800  -36.7740   23.0190 C   0  0  0  0  0  1  0  0  0  0  0  0
  -25.4040  -36.3960   23.8690 C   0  0  0  0  0  3  0  0  0  0  0  0
  -27.5060  -37.3170   24.7440 C   0  0  0  0  0  1  0  0  0  0  0  0
  -26.4270  -37.4610   23.7710 N   0  0  0  0  0  0  0  0  0  0  0  0
  -26.0070  -38.3780   23.8970 H   0  0  0  0  0  0  0  0  0  0  0  0
  1 20  1  0
  1  2  1  0
  2 56  1  0
  3 19  2  0
  3  5  1  0
  4  2  1  0
  6  3  1  0
  8  7  1  0
  9  1  1  0
  9  7  1  0
 10  9  1  0
 10  4  1  0
 11  5  1  0
 11 12  1  0
 12  8  1  0
 13 16  1  0
 13 15  1  0
 14 17  1  6
 14 13  1  0
 14  6  1  0
 14 11  1  0
 15 18  1  6
 15 10  1  0
 15 12  1  0
 21 26  1  0
 22 23  1  0
 22 21  1  0
 24 23  1  0
 24 31  1  0
 24 25  1  0
 26 20  1  0
 26 25  1  0
 27 20  2  0
 28 29  2  0
 29 48  1  0
 30 29  1  0
 30 33  1  0
 31 28  1  0
 31 32  1  0
 32 30  2  0
 33 34  1  0
 34 35  2  0
 36 39  1  0
 36 35  1  0
 37 36  2  0
 38 37  1  0
 38 33  2  0
 39 40  1  0
 40 41  1  0
 41 42  2  0
 43 42  1  0
 43 47  1  0
 44 43  2  0
 45 40  2  0
 45 44  1  0
 46 45  1  0
 48 49  1  0
 49 52  1  0
 49 51  1  0
 50 48  2  0
 53 54  1  0
 53 28  1  0
 55 53  1  0
 57 56  1  0
 58 59  1  0
 58 19  1  0
 59 60  1  0
 60 62  1  0
 61 72  2  0
 62 67  1  0
 63 71  1  0
 63 73  1  0
 64 66  1  0
 65 71  1  0
 66 67  2  0
 66 65  1  0
 68 62  2  0
 69 68  1  0
 69 64  2  0
 70 64  1  0
 70 63  1  0
 71 61  1  0
 73 75  2  0
 74 73  1  0
 76 74  1  0
 77 86  2  0
 77 82  1  0
 78 74  1  0
 78 82  1  0
 79 78  1  0
 80 81  1  0
 80 79  1  0
 81 77  1  0
 82 83  2  0
 83 84  1  0
 85 84  2  0
 86 85  1  0
 87 61  1  0
 87 92  1  0
 87 88  1  0
 88 91  1  1
 88 89  1  0
 90 88  1  0
 92 95  1  0
 93 97  1  0
 93 92  1  0
 94 93  2  0
 97 96  1  0
 99 97  1  0
 99100  1  0
 99 98  1  0
M  ISO  4   1 100  20 100  59 101  60 101
M  END
>  <TORSDO>  (74) 
F 19

>  <SCORE>  (74) 
-14.693

>  <name>  (74) 
73

>  <ligand_id>  (74) 
73

>  <original_smiles>  (74) 
[H]OC1=C(C(=O)N2C([H])([H])C([H])([H])C([H])([H])C([H])(n3nc(-c4c([H])c([H])c(Oc5c([H])c([H])c(F)c([H])c5F)c([H])c4[H])c(C(=O)N([H])[H])c3N([H])[H])C2([H])[H])C2([H])C([H])([H])C([H])([H])C3([H])C4([H])C([H])([H])C(=NC([H])([H])C([H])([H])Oc5c([H])c([H])c6c(c5[H])C([H])([H])N(C(=O)C([H])(N([H])C(=O)C([H])(N([H])C([H])([H])[H])C([H])([H])[H])C(C([H])([H])[H])(C([H])([H])[H])C([H])([H])[H])C([H])(C(=O)N([H])C5([H])c7c([H])c([H])c([H])c([H])c7C([H])([H])C([H])([H])C5([H])[H])C6([H])[H])C([H])([H])C4(C([H])([H])[H])C([H])(C([H])([H])[H])C3(C([H])([H])[H])C2([H])C1([H])[H]

>  <smiles>  (74) 
[H]OC1=C(C(=O)N2C([H])([H])C([H])([H])C([H])([H])C([H])(n3nc(-c4c([H])c([H])c(Oc5c([H])c([H])c(F)c([H])c5F)c([H])c4[H])c(C(=O)N([H])[H])c3N([H])[H])C2([H])[H])C2([H])C([H])([H])C([H])([H])C3([H])C4([H])C([H])([H])C(=NC([H])([H])C([H])([H])Oc5c([H])c([H])c6c(c5[H])C([H])([H])N(C(=O)C([H])(N([H])C(=O)C([H])(N([H])C([H])([H])[H])C([H])([H])[H])C(C([H])([H])[H])(C([H])([H])[H])C([H])([H])[H])C([H])(C(=O)N([H])C5([H])c7c([H])c([H])c([H])c([H])c7C([H])([H])C([H])([H])C5([H])[H])C6([H])[H])C([H])([H])C4(C([H])([H])[H])C([H])(C([H])([H])[H])C3(C([H])([H])[H])C2([H])C1([H])[H]

$$$$
74:0:0
     RDKit          3D

 93101  0  0  1  0  0  0  0  0999 V2000
  -32.1620  -25.2190   18.3020 C   0  0  0  0  0  3  0  0  0  0  0  0
  -32.5600  -24.0540   18.9870 C   0  0  0  0  0  3  0  0  0  0  0  0
  -30.8490  -25.7030   18.4410 C   0  0  0  0  0  3  0  0  0  0  0  0
  -30.3320  -23.8570   19.9520 C   0  0  0  0  0  3  0  0  0  0  0  0
  -31.6560  -23.3630   19.8310 C   0  0  0  0  0  0  0  0  0  0  0  0
  -29.9280  -25.0190   19.2570 C   0  0  0  0  0  0  0  0  0  0  0  0
  -32.1170  -22.1120   20.5160 C   0  0  0  0  0  0  0  0  0  0  0  0
  -33.1160  -21.4880   20.1410 O   0  0  0  0  0  0  0  0  0  0  0  0
  -31.3530  -21.6300   21.7640 C   0  0  0  0  0  2  0  0  0  0  0  0
  -31.5570  -20.1440   22.1440 C   0  0  0  0  0  2  0  0  0  0  0  0
  -30.8170  -19.1670   21.2100 C   0  0  0  0  0  2  0  0  0  0  0  0
  -30.9000  -17.6960   21.6540 C   0  0  0  0  0  2  0  0  0  0  0  0
  -29.9850  -16.8180   20.7830 C   0  0  0  0  0  2  0  0  0  0  0  0
  -30.6570  -14.4370   20.5440 C   0  0  0  0  0  0  0  0  0  0  0  0
  -30.3520  -12.3040   19.3510 C   0  0  0  0  0  2  0  0  0  0  0  0
  -29.4070  -12.5600   18.1570 C   0  0  0  0  0  2  0  0  0  0  0  0
  -27.9330  -12.4230   18.5890 C   0  0  0  0  0  2  0  0  0  0  0  0
  -27.6060  -13.2290   19.8740 C   0  0  0  0  0  3  0  0  0  0  0  0
  -28.6620  -12.9550   20.9710 C   0  0  0  0  0  2  0  0  0  0  0  0
  -29.9960  -13.2580   20.4140 N   0  0  0  0  0  0  0  0  0  0  0  0
  -31.7410  -14.6770   20.0030 O   0  0  0  0  0  0  0  0  0  0  0  0
  -29.9540  -15.4020   21.1530 N   0  0  0  0  0  0  0  0  0  0  0  0
  -29.1190  -15.0920   21.6290 H   0  0  0  0  0  0  0  0  0  0  0  0
  -25.2040  -13.8400   20.5790 C   0  0  0  0  0  0  0  0  0  0  0  0
  -24.1360  -13.0680   20.9520 C   0  0  0  0  0  0  0  0  0  0  0  0
  -24.5970  -11.7160   20.9190 C   0  0  0  0  0  0  0  0  0  0  0  0
  -26.2500  -12.9590   20.3480 N   0  0  0  0  0  0  0  0  0  0  0  0
  -25.8870  -11.6770   20.6070 N   0  0  0  0  0  0  0  0  0  0  0  0
  -23.8730  -10.4550   21.1140 C   0  0  0  0  0  0  0  0  0  0  0  0
  -24.3280   -9.4770   22.0270 C   0  0  0  0  0  3  0  0  0  0  0  0
  -23.6070   -8.2780   22.2090 C   0  0  0  0  0  3  0  0  0  0  0  0
  -22.4150   -8.0490   21.4820 C   0  0  0  0  0  0  0  0  0  0  0  0
  -21.9780   -9.0170   20.5600 C   0  0  0  0  0  3  0  0  0  0  0  0
  -22.6990  -10.2080   20.3750 C   0  0  0  0  0  3  0  0  0  0  0  0
  -21.6610   -6.9040   21.5750 O   0  0  0  0  0  0  0  0  0  0  0  0
  -21.6610   -6.1310   22.7080 C   0  0  0  0  0  0  0  0  0  0  0  0
  -21.3140   -6.6590   23.9710 C   0  0  0  0  0  3  0  0  0  0  0  0
  -21.2630   -5.8120   25.0980 C   0  0  0  0  0  3  0  0  0  0  0  0
  -21.5460   -4.4400   24.9610 C   0  0  0  0  0  0  0  0  0  0  0  0
  -21.8830   -3.9110   23.7020 C   0  0  0  0  0  3  0  0  0  0  0  0
  -21.9390   -4.7550   22.5790 C   0  0  0  0  0  0  0  0  0  0  0  0
  -22.2470   -4.2390   21.3650 F   0  0  0  0  0  0  0  0  0  0  0  0
  -21.4880   -3.6240   26.0400 F   0  0  0  0  0  0  0  0  0  0  0  0
  -22.7390  -13.5430   21.2310 C   0  0  0  0  0  0  0  0  0  0  0  0
  -22.0130  -12.8500   22.1000 N   0  0  0  0  0  0  0  0  0  0  0  0
  -22.2980  -14.5690   20.7130 O   0  0  0  0  0  0  0  0  0  0  0  0
  -22.3810  -12.0230   22.5450 H   0  0  0  0  0  0  0  0  0  0  0  0
  -21.0760  -13.1550   22.3240 H   0  0  0  0  0  0  0  0  0  0  0  0
  -25.3670  -15.2120   20.3990 N   0  0  0  0  0  0  0  0  0  0  0  0
  -24.5910  -15.8590   20.4830 H   0  0  0  0  0  0  0  0  0  0  0  0
  -26.2150  -15.6550   20.0700 H   0  0  0  0  0  0  0  0  0  0  0  0
  -28.5000  -25.5250   19.3580 C   0  0  0  0  0  2  0  0  0  0  0  0
  -28.4330  -26.7670   20.0580 O   0  0  0  0  0  0  0  0  0  0  0  0
  -24.6220  -31.8790   23.2240 C   0  0  0  0  0  0  0  0  0  0  0  0
  -27.2300  -27.4370   20.0970 C   0  0  0  0  0  0  0  0  0  0  0  0
  -23.3930  -30.4730   21.6040 C   0  0  0  0  0  3  0  0  0  0  0  0
  -24.8250  -28.9290   20.1640 C   0  0  0  0  0  0  0  0  0  0  0  0
  -25.9170  -30.8230   21.3770 C   0  0  0  0  0  2  0  0  0  0  0  0
  -25.9890  -29.4510   20.7390 C   0  0  0  0  0  0  0  0  0  0  0  0
  -27.1900  -28.7090   20.7110 C   0  0  0  0  0  3  0  0  0  0  0  0
  -26.0370  -26.9160   19.5380 C   0  0  0  0  0  3  0  0  0  0  0  0
  -24.8420  -27.6550   19.5710 C   0  0  0  0  0  3  0  0  0  0  0  0
  -23.5830  -29.7900   20.2240 C   0  0  0  0  0  2  0  0  0  0  0  0
  -24.6640  -31.0690   22.1280 N   0  0  0  0  0  0  0  0  0  0  0  0
  -23.5430  -32.1790   23.7520 O   0  0  0  0  0  0  0  0  0  0  0  0
  -22.7540  -29.4520   22.5720 C   0  0  0  0  0  0  0  0  0  0  0  0
  -21.4300  -29.2650   22.4540 N   0  0  0  0  0  0  0  0  0  0  0  0
  -23.4470  -28.8310   23.3840 O   0  0  0  0  0  0  0  0  0  0  0  0
  -20.9360  -29.8170   21.7670 H   0  0  0  0  0  0  0  0  0  0  0  0
  -18.0630  -28.0600   22.9600 C   0  0  0  0  0  0  0  0  0  0  0  0
  -20.6200  -28.3270   23.2280 C   0  0  0  0  0  3  0  0  0  0  0  0
  -20.7260  -26.8950   22.6540 C   0  0  0  0  0  2  0  0  0  0  0  0
  -19.6230  -26.5660   21.6430 C   0  0  0  0  0  2  0  0  0  0  0  0
  -18.2420  -26.7090   22.2890 C   0  0  0  0  0  2  0  0  0  0  0  0
  -19.1790  -28.8260   23.3850 C   0  0  0  0  0  0  0  0  0  0  0  0
  -18.9580  -30.0930   23.9710 C   0  0  0  0  0  3  0  0  0  0  0  0
  -17.6520  -30.5920   24.1340 C   0  0  0  0  0  3  0  0  0  0  0  0
  -16.5500  -29.8210   23.7250 C   0  0  0  0  0  3  0  0  0  0  0  0
  -16.7560  -28.5570   23.1430 C   0  0  0  0  0  3  0  0  0  0  0  0
  -25.9170  -32.4950   23.8400 C   0  0  0  0  0  3  0  0  0  0  0  0
  -25.6160  -33.8880   24.1910 N   0  0  0  0  0  0  0  0  0  0  0  0
  -25.9320  -34.9480   23.4350 C   0  0  0  0  0  0  0  0  0  0  0  0
  -26.5860  -34.8530   22.3920 O   0  0  0  0  0  0  0  0  0  0  0  0
  -25.0300  -34.0350   25.0000 H   0  0  0  0  0  0  0  0  0  0  0  0
  -24.1890  -36.7340   23.1260 C   0  0  0  0  0  1  0  0  0  0  0  0
  -25.4480  -36.3300   23.9110 C   0  0  0  0  0  3  0  0  0  0  0  0
  -27.6010  -37.2140   24.6980 C   0  0  0  0  0  1  0  0  0  0  0  0
  -26.4740  -37.3890   23.7850 N   0  0  0  0  0  0  0  0  0  0  0  0
  -26.0690  -38.3070   23.9510 H   0  0  0  0  0  0  0  0  0  0  0  0
  -26.4510  -31.7050   25.0980 C   0  0  1  0  0  0  0  0  0  0  0  0
  -25.3750  -31.4570   26.1790 C   0  0  0  0  0  1  0  0  0  0  0  0
  -27.0210  -30.3310   24.6780 C   0  0  0  0  0  1  0  0  0  0  0  0
  -27.6140  -32.4860   25.7530 C   0  0  0  0  0  1  0  0  0  0  0  0
  1  3  2  0
  1  2  1  0
  2  5  2  0
  3  6  1  0
  5  4  1  0
  5  7  1  0
  6 52  1  0
  6  4  2  0
  7  9  1  0
  8  7  2  0
  9 10  1  0
 11 12  1  0
 11 10  1  0
 13 22  1  0
 13 12  1  0
 14 22  1  0
 15 20  1  0
 16 17  1  0
 16 15  1  0
 18 17  1  0
 18 27  1  0
 18 19  1  0
 20 14  1  0
 20 19  1  0
 21 14  2  0
 22 23  1  0
 24 25  2  0
 25 44  1  0
 26 25  1  0
 26 29  1  0
 27 24  1  0
 27 28  1  0
 28 26  2  0
 29 30  1  0
 30 31  2  0
 32 35  1  0
 32 31  1  0
 33 32  2  0
 34 33  1  0
 34 29  2  0
 35 36  1  0
 36 37  1  0
 37 38  2  0
 39 38  1  0
 39 43  1  0
 40 39  2  0
 41 36  2  0
 41 40  1  0
 42 41  1  0
 44 45  1  0
 45 48  1  0
 45 47  1  0
 46 44  2  0
 49 50  1  0
 49 24  1  0
 51 49  1  0
 52 53  1  0
 53 55  1  0
 54 65  2  0
 55 60  1  0
 56 64  1  0
 56 66  1  0
 57 63  1  0
 57 59  1  0
 58 64  1  0
 59 58  1  0
 60 59  2  0
 61 62  1  0
 61 55  2  0
 62 57  2  0
 63 56  1  0
 64 54  1  0
 66 68  2  0
 67 66  1  0
 69 67  1  0
 70 79  2  0
 70 75  1  0
 71 67  1  0
 71 75  1  0
 72 71  1  0
 73 74  1  0
 73 72  1  0
 74 70  1  0
 75 76  2  0
 76 77  1  0
 78 77  2  0
 79 78  1  0
 80 54  1  0
 80 81  1  0
 80 90  1  0
 81 84  1  0
 82 86  1  0
 82 81  1  0
 83 82  2  0
 86 85  1  0
 88 86  1  0
 88 89  1  0
 88 87  1  0
 90 93  1  1
 90 91  1  0
 92 90  1  0
M  ISO  4  14 100  22 100  52 101  53 101
M  END
>  <TORSDO>  (75) 
F 23

>  <SCORE>  (75) 
-12.839

>  <name>  (75) 
74

>  <ligand_id>  (75) 
74

>  <original_smiles>  (75) 
[H]c1c([H])c(C(=O)C([H])([H])C([H])([H])C([H])([H])C([H])([H])C([H])([H])N([H])C(=O)N2C([H])([H])C([H])([H])C([H])([H])C([H])(n3nc(-c4c([H])c([H])c(Oc5c([H])c([H])c(F)c([H])c5F)c([H])c4[H])c(C(=O)N([H])[H])c3N([H])[H])C2([H])[H])c([H])c(C([H])([H])Oc2c([H])c([H])c3c(c2[H])C([H])([H])N(C(=O)C([H])(N([H])C(=O)C([H])(N([H])C([H])([H])[H])C([H])([H])[H])C(C([H])([H])[H])(C([H])([H])[H])C([H])([H])[H])C([H])(C(=O)N([H])C2([H])c4c([H])c([H])c([H])c([H])c4C([H])([H])C([H])([H])C2([H])[H])C3([H])[H])c1[H]

>  <smiles>  (75) 
[H]c1c([H])c(C(=O)C([H])([H])C([H])([H])C([H])([H])C([H])([H])C([H])([H])N([H])C(=O)N2C([H])([H])C([H])([H])C([H])([H])C([H])(n3nc(-c4c([H])c([H])c(Oc5c([H])c([H])c(F)c([H])c5F)c([H])c4[H])c(C(=O)N([H])[H])c3N([H])[H])C2([H])[H])c([H])c(C([H])([H])Oc2c([H])c([H])c3c(c2[H])C([H])([H])N(C(=O)C([H])(N([H])C(=O)C([H])(N([H])C([H])([H])[H])C([H])([H])[H])C(C([H])([H])[H])(C([H])([H])[H])C([H])([H])[H])C([H])(C(=O)N([H])C2([H])c4c([H])c([H])c([H])c([H])c4C([H])([H])C([H])([H])C2([H])[H])C3([H])[H])c1[H]

$$$$
75:0:0
     RDKit          3D

 94103  0  0  1  0  0  0  0  0999 V2000
  -29.1540  -23.8700   22.5480 C   0  0  0  0  0  2  0  0  0  0  0  0
  -27.9940  -22.9740   22.1050 C   0  0  0  0  0  2  0  0  0  0  0  0
  -28.1630  -24.1880   19.8220 C   0  0  0  0  0  2  0  0  0  0  0  0
  -28.9990  -25.3170   22.0220 C   0  0  0  0  0  3  0  0  0  0  0  0
  -27.9880  -22.8180   20.5660 C   0  0  0  0  0  3  0  0  0  0  0  0
  -28.0910  -25.4200   20.7730 C   0  0  0  0  0  3  0  0  0  0  0  0
  -30.3640  -26.0080   21.8720 C   0  0  0  0  0  1  0  0  0  0  0  0
  -29.0200  -21.8420   20.1380 N   0  0  0  0  0  4  0  0  0  0  0  0
  -29.9020  -22.1010   20.5500 H   0  0  0  0  0  0  0  0  0  0  0  0
  -29.1430  -21.9260   19.1430 H   0  0  0  0  0  0  0  0  0  0  0  0
  -28.7670  -20.4030   20.4030 C   0  0  0  0  0  2  0  0  0  0  0  0
  -30.1320  -19.6850   20.4600 C   0  0  0  0  0  2  0  0  0  0  0  0
  -29.3400  -16.2140   18.9030 C   0  0  0  0  0  2  0  0  0  0  0  0
  -29.5140  -17.7400   18.7540 C   0  0  0  0  0  2  0  0  0  0  0  0
  -30.0860  -17.0600   21.0660 C   0  0  0  0  0  2  0  0  0  0  0  0
  -30.2610  -15.9000   20.0810 C   0  0  0  0  0  3  0  0  0  0  0  0
  -30.2390  -18.2090   20.0460 C   0  0  0  0  0  3  0  0  0  0  0  0
  -30.7620  -14.4990   20.5080 C   0  0  0  0  0  0  0  0  0  0  0  0
  -30.3780  -12.2820   19.5940 C   0  0  0  0  0  2  0  0  0  0  0  0
  -29.5170  -12.4040   18.3270 C   0  0  0  0  0  2  0  0  0  0  0  0
  -28.0250  -12.3050   18.6960 C   0  0  0  0  0  2  0  0  0  0  0  0
  -27.6200  -13.2420   19.8620 C   0  0  0  0  0  3  0  0  0  0  0  0
  -28.6400  -13.2310   21.0210 C   0  0  0  0  0  2  0  0  0  0  0  0
  -29.9900  -13.3840   20.4780 N   0  0  0  0  0  0  0  0  0  0  0  0
  -31.9870  -14.4110   20.5060 O   0  0  0  0  0  0  0  0  0  0  0  0
  -25.2210  -13.8800   20.5170 C   0  0  0  0  0  0  0  0  0  0  0  0
  -24.1390  -13.1180   20.8610 C   0  0  0  0  0  0  0  0  0  0  0  0
  -24.6010  -11.7630   20.8820 C   0  0  0  0  0  0  0  0  0  0  0  0
  -26.2650  -12.9870   20.3230 N   0  0  0  0  0  0  0  0  0  0  0  0
  -25.8970  -11.7140   20.6120 N   0  0  0  0  0  0  0  0  0  0  0  0
  -23.8730  -10.5060   21.0630 C   0  0  0  0  0  0  0  0  0  0  0  0
  -24.2790   -9.5480   22.0180 C   0  0  0  0  0  3  0  0  0  0  0  0
  -23.5500   -8.3480   22.1800 C   0  0  0  0  0  3  0  0  0  0  0  0
  -22.4020   -8.1010   21.3920 C   0  0  0  0  0  0  0  0  0  0  0  0
  -22.0160   -9.0500   20.4270 C   0  0  0  0  0  3  0  0  0  0  0  0
  -22.7490  -10.2370   20.2560 C   0  0  0  0  0  3  0  0  0  0  0  0
  -21.6390   -6.9610   21.4720 O   0  0  0  0  0  0  0  0  0  0  0  0
  -21.5730   -6.2210   22.6250 C   0  0  0  0  0  0  0  0  0  0  0  0
  -21.1180   -6.7800   23.8400 C   0  0  0  0  0  3  0  0  0  0  0  0
  -20.9910   -5.9670   24.9850 C   0  0  0  0  0  3  0  0  0  0  0  0
  -21.3070   -4.5970   24.9190 C   0  0  0  0  0  0  0  0  0  0  0  0
  -21.7560   -4.0390   23.7100 C   0  0  0  0  0  3  0  0  0  0  0  0
  -21.8830   -4.8480   22.5680 C   0  0  0  0  0  0  0  0  0  0  0  0
  -22.2940   -4.2990   21.3980 F   0  0  0  0  0  0  0  0  0  0  0  0
  -21.1790   -3.8180   26.0190 F   0  0  0  0  0  0  0  0  0  0  0  0
  -22.7280  -13.5930   21.0650 C   0  0  0  0  0  0  0  0  0  0  0  0
  -21.9650  -12.9140   21.9130 N   0  0  0  0  0  0  0  0  0  0  0  0
  -22.3140  -14.6110   20.5050 O   0  0  0  0  0  0  0  0  0  0  0  0
  -22.3190  -12.1050   22.4040 H   0  0  0  0  0  0  0  0  0  0  0  0
  -21.0210  -13.2240   22.0980 H   0  0  0  0  0  0  0  0  0  0  0  0
  -25.4080  -15.2470   20.3260 N   0  0  0  0  0  0  0  0  0  0  0  0
  -24.6590  -15.9290   20.4010 H   0  0  0  0  0  0  0  0  0  0  0  0
  -26.2990  -15.6570   20.0760 H   0  0  0  0  0  0  0  0  0  0  0  0
  -28.2930  -26.6950   20.1260 O   0  0  0  0  0  0  0  0  0  0  0  0
  -24.5820  -31.9190   23.2490 C   0  0  0  0  0  0  0  0  0  0  0  0
  -27.1710  -27.4900   20.1110 C   0  0  0  0  0  0  0  0  0  0  0  0
  -23.3620  -30.5260   21.6190 C   0  0  0  0  0  3  0  0  0  0  0  0
  -24.7940  -29.0090   20.1600 C   0  0  0  0  0  0  0  0  0  0  0  0
  -25.8890  -30.8810   21.4040 C   0  0  0  0  0  2  0  0  0  0  0  0
  -25.9620  -29.5180   20.7470 C   0  0  0  0  0  0  0  0  0  0  0  0
  -27.1570  -28.7650   20.7160 C   0  0  0  0  0  3  0  0  0  0  0  0
  -26.0000  -27.0120   19.4930 C   0  0  0  0  0  3  0  0  0  0  0  0
  -24.8130  -27.7650   19.5170 C   0  0  0  0  0  3  0  0  0  0  0  0
  -23.5480  -29.8560   20.2340 C   0  0  0  0  0  2  0  0  0  0  0  0
  -24.6310  -31.1180   22.1520 N   0  0  0  0  0  0  0  0  0  0  0  0
  -23.5010  -32.2090   23.7840 O   0  0  0  0  0  0  0  0  0  0  0  0
  -22.7190  -29.5000   22.5790 C   0  0  0  0  0  0  0  0  0  0  0  0
  -21.3930  -29.3210   22.4590 N   0  0  0  0  0  0  0  0  0  0  0  0
  -23.4120  -28.8700   23.3820 O   0  0  0  0  0  0  0  0  0  0  0  0
  -20.8990  -29.8820   21.7790 H   0  0  0  0  0  0  0  0  0  0  0  0
  -18.0190  -28.1280   22.9550 C   0  0  0  0  0  0  0  0  0  0  0  0
  -20.5780  -28.3810   23.2270 C   0  0  0  0  0  3  0  0  0  0  0  0
  -20.6780  -26.9520   22.6450 C   0  0  0  0  0  2  0  0  0  0  0  0
  -19.5750  -26.6350   21.6300 C   0  0  0  0  0  2  0  0  0  0  0  0
  -18.1950  -26.7770   22.2780 C   0  0  0  0  0  2  0  0  0  0  0  0
  -19.1390  -28.8860   23.3870 C   0  0  0  0  0  0  0  0  0  0  0  0
  -18.9220  -30.1460   23.9830 C   0  0  0  0  0  3  0  0  0  0  0  0
  -17.6180  -30.6480   24.1510 C   0  0  0  0  0  3  0  0  0  0  0  0
  -16.5130  -29.8870   23.7350 C   0  0  0  0  0  3  0  0  0  0  0  0
  -16.7140  -28.6300   23.1410 C   0  0  0  0  0  3  0  0  0  0  0  0
  -25.8770  -32.5360   23.8680 C   0  0  0  0  0  3  0  0  0  0  0  0
  -26.3960  -31.7580   25.1360 C   0  0  1  0  0  0  0  0  0  0  0  0
  -25.3020  -31.5270   26.2050 C   0  0  0  0  0  1  0  0  0  0  0  0
  -26.9710  -30.3780   24.7400 C   0  0  0  0  0  1  0  0  0  0  0  0
  -27.5540  -32.5470   25.7860 C   0  0  0  0  0  1  0  0  0  0  0  0
  -25.5740  -33.9350   24.1990 N   0  0  0  0  0  0  0  0  0  0  0  0
  -25.9120  -34.9870   23.4400 C   0  0  0  0  0  0  0  0  0  0  0  0
  -26.5790  -34.8800   22.4070 O   0  0  0  0  0  0  0  0  0  0  0  0
  -24.9570  -34.0880   24.9860 H   0  0  0  0  0  0  0  0  0  0  0  0
  -24.1870  -36.7920   23.1000 C   0  0  0  0  0  1  0  0  0  0  0  0
  -25.4340  -36.3780   23.8980 C   0  0  0  0  0  3  0  0  0  0  0  0
  -27.5820  -37.2580   24.7060 C   0  0  0  0  0  1  0  0  0  0  0  0
  -26.4710  -37.4270   23.7730 N   0  0  0  0  0  0  0  0  0  0  0  0
  -26.0670  -38.3480   23.9240 H   0  0  0  0  0  0  0  0  0  0  0  0
  2  1  1  0
  3  5  1  0
  3  6  1  0
  4  7  1  0
  4  1  1  0
  5  8  1  0
  5  2  1  0
  6 54  1  0
  6  4  1  0
  8 11  1  0
  8  9  1  0
 10  8  1  0
 11 12  1  0
 13 16  1  0
 14 13  1  0
 14 17  1  0
 16 18  1  0
 16 15  1  0
 17 12  1  0
 17 15  1  0
 19 24  1  0
 20 21  1  0
 20 19  1  0
 22 21  1  0
 22 29  1  0
 22 23  1  0
 24 18  1  0
 24 23  1  0
 25 18  2  0
 26 27  2  0
 27 28  1  0
 27 46  1  0
 28 31  1  0
 29 26  1  0
 29 30  1  0
 30 28  2  0
 31 32  1  0
 32 33  2  0
 34 37  1  0
 34 33  1  0
 35 34  2  0
 36 35  1  0
 36 31  2  0
 37 38  1  0
 38 39  1  0
 39 40  2  0
 41 40  1  0
 41 45  1  0
 42 41  2  0
 43 38  2  0
 43 42  1  0
 44 43  1  0
 46 47  1  0
 47 50  1  0
 47 49  1  0
 48 46  2  0
 51 52  1  0
 51 26  1  0
 53 51  1  0
 55 66  2  0
 56 54  1  0
 56 61  1  0
 57 65  1  0
 57 67  1  0
 58 64  1  0
 58 60  1  0
 59 65  1  0
 60 59  1  0
 61 60  2  0
 62 63  1  0
 62 56  2  0
 63 58  2  0
 64 57  1  0
 65 55  1  0
 67 69  2  0
 68 67  1  0
 70 68  1  0
 71 80  2  0
 71 76  1  0
 72 68  1  0
 72 76  1  0
 73 72  1  0
 74 75  1  0
 74 73  1  0
 75 71  1  0
 76 77  2  0
 77 78  1  0
 79 78  2  0
 80 79  1  0
 81 55  1  0
 81 86  1  0
 81 82  1  0
 82 85  1  1
 82 83  1  0
 84 82  1  0
 86 89  1  0
 87 91  1  0
 87 86  1  0
 88 87  2  0
 91 90  1  0
 93 91  1  0
 93 94  1  0
 93 92  1  0
M  ISO  4   6 101  16 100  18 100  54 101
M  END
>  <TORSDO>  (76) 
F 20

>  <SCORE>  (76) 
-13.693

>  <name>  (76) 
75

>  <ligand_id>  (76) 
75

>  <original_smiles>  (76) 
[H]c1c([H])c([H])c2c(c1[H])C([H])([H])C([H])([H])C([H])([H])C2([H])N([H])C(=O)C1([H])N(C(=O)C([H])(N([H])C(=O)C([H])(N([H])C([H])([H])[H])C([H])([H])[H])C(C([H])([H])[H])(C([H])([H])[H])C([H])([H])[H])C([H])([H])c2c([H])c(OC3([H])C([H])([H])C([H])([N+]([H])([H])C([H])([H])C([H])([H])C4([H])C([H])([H])C([H])([H])C([H])(C(=O)N5C([H])([H])C([H])([H])C([H])([H])C([H])(n6nc(-c7c([H])c([H])c(Oc8c([H])c([H])c(F)c([H])c8F)c([H])c7[H])c(C(=O)N([H])[H])c6N([H])[H])C5([H])[H])C4([H])[H])C([H])([H])C([H])([H])C3([H])C([H])([H])[H])c([H])c([H])c2C1([H])[H]

>  <smiles>  (76) 
[H]c1c([H])c([H])c2c(c1[H])C([H])([H])C([H])([H])C([H])([H])C2([H])N([H])C(=O)C1([H])N(C(=O)C([H])(N([H])C(=O)C([H])(N([H])C([H])([H])[H])C([H])([H])[H])C(C([H])([H])[H])(C([H])([H])[H])C([H])([H])[H])C([H])([H])c2c([H])c(OC3([H])C([H])([H])C([H])([N+]([H])([H])C([H])([H])C([H])([H])C4([H])C([H])([H])C([H])([H])C([H])(C(=O)N5C([H])([H])C([H])([H])C([H])([H])C([H])(n6nc(-c7c([H])c([H])c(Oc8c([H])c([H])c(F)c([H])c8F)c([H])c7[H])c(C(=O)N([H])[H])c6N([H])[H])C5([H])[H])C4([H])[H])C([H])([H])C([H])([H])C3([H])C([H])([H])[H])c([H])c([H])c2C1([H])[H]

$$$$
76:0:0
     RDKit          3D

 96104  0  0  1  0  0  0  0  0999 V2000
  -30.0590  -24.2200   17.3610 C   0  0  0  0  0  3  0  0  0  0  0  0
  -29.0670  -24.5940   19.5510 C   0  0  0  0  0  3  0  0  0  0  0  0
  -29.2490  -26.4410   17.9570 C   0  0  0  0  0  3  0  0  0  0  0  0
  -29.6680  -23.7120   18.6200 C   0  0  0  0  0  0  0  0  0  0  0  0
  -29.8550  -25.5720   17.0270 C   0  0  0  0  0  0  0  0  0  0  0  0
  -28.8630  -25.9510   19.2210 C   0  0  0  0  0  0  0  0  0  0  0  0
  -29.9510  -22.2670   18.9480 C   0  0  0  0  0  0  0  0  0  0  0  0
  -29.0770  -21.6320   19.7410 N   0  0  0  0  0  0  0  0  0  0  0  0
  -30.8880  -21.6800   18.4020 O   0  0  0  0  0  0  0  0  0  0  0  0
  -28.3370  -22.1890   20.1440 H   0  0  0  0  0  0  0  0  0  0  0  0
  -28.8740  -20.1790   19.7520 C   0  0  0  0  0  2  0  0  0  0  0  0
  -29.8030  -19.3650   20.6840 C   0  0  0  0  0  2  0  0  0  0  0  0
  -29.4750  -17.8550   20.5740 C   0  0  0  0  0  2  0  0  0  0  0  0
  -30.4770  -16.8880   21.2450 C   0  0  0  0  0  2  0  0  0  0  0  0
  -30.6900  -14.4820   20.5400 C   0  0  0  0  0  0  0  0  0  0  0  0
  -30.3810  -12.3390   19.3560 C   0  0  0  0  0  2  0  0  0  0  0  0
  -29.4350  -12.5250   18.1500 C   0  0  0  0  0  2  0  0  0  0  0  0
  -27.9570  -12.4120   18.5740 C   0  0  0  0  0  2  0  0  0  0  0  0
  -27.6210  -13.2440   19.8400 C   0  0  0  0  0  3  0  0  0  0  0  0
  -28.6760  -13.0110   20.9450 C   0  0  0  0  0  2  0  0  0  0  0  0
  -30.0010  -13.3190   20.3850 N   0  0  0  0  0  0  0  0  0  0  0  0
  -31.8080  -14.6700   20.0540 O   0  0  0  0  0  0  0  0  0  0  0  0
  -30.0280  -15.4860   21.1470 N   0  0  0  0  0  0  0  0  0  0  0  0
  -29.1140  -15.2650   21.5140 H   0  0  0  0  0  0  0  0  0  0  0  0
  -25.2100  -13.8400   20.5240 C   0  0  0  0  0  0  0  0  0  0  0  0
  -24.1450  -13.0630   20.8920 C   0  0  0  0  0  0  0  0  0  0  0  0
  -24.6140  -11.7150   20.8720 C   0  0  0  0  0  0  0  0  0  0  0  0
  -26.2650  -12.9640   20.3120 N   0  0  0  0  0  0  0  0  0  0  0  0
  -25.9080  -11.6810   20.5770 N   0  0  0  0  0  0  0  0  0  0  0  0
  -23.8950  -10.4480   21.0610 C   0  0  0  0  0  0  0  0  0  0  0  0
  -24.3360   -9.4810   21.9920 C   0  0  0  0  0  3  0  0  0  0  0  0
  -23.6180   -8.2790   22.1720 C   0  0  0  0  0  3  0  0  0  0  0  0
  -22.4430   -8.0360   21.4220 C   0  0  0  0  0  0  0  0  0  0  0  0
  -22.0210   -8.9910   20.4790 C   0  0  0  0  0  3  0  0  0  0  0  0
  -22.7400  -10.1850   20.2980 C   0  0  0  0  0  3  0  0  0  0  0  0
  -21.6900   -6.8920   21.5160 O   0  0  0  0  0  0  0  0  0  0  0  0
  -21.6670   -6.1400   22.6630 C   0  0  0  0  0  0  0  0  0  0  0  0
  -21.2620   -6.6810   23.9020 C   0  0  0  0  0  3  0  0  0  0  0  0
  -21.1840   -5.8550   25.0400 C   0  0  0  0  0  3  0  0  0  0  0  0
  -21.4980   -4.4860   24.9390 C   0  0  0  0  0  0  0  0  0  0  0  0
  -21.8940   -3.9430   23.7040 C   0  0  0  0  0  3  0  0  0  0  0  0
  -21.9760   -4.7670   22.5690 C   0  0  0  0  0  0  0  0  0  0  0  0
  -22.3380   -4.2340   21.3770 F   0  0  0  0  0  0  0  0  0  0  0  0
  -21.4150   -3.6910   26.0320 F   0  0  0  0  0  0  0  0  0  0  0  0
  -22.7400  -13.5310   21.1470 C   0  0  0  0  0  0  0  0  0  0  0  0
  -22.0060  -12.8380   22.0130 N   0  0  0  0  0  0  0  0  0  0  0  0
  -22.2960  -14.5440   20.6100 O   0  0  0  0  0  0  0  0  0  0  0  0
  -22.3720  -12.0190   22.4790 H   0  0  0  0  0  0  0  0  0  0  0  0
  -21.0620  -13.1340   22.2170 H   0  0  0  0  0  0  0  0  0  0  0  0
  -25.3680  -15.2090   20.3310 N   0  0  0  0  0  0  0  0  0  0  0  0
  -24.6070  -15.8680   20.4560 H   0  0  0  0  0  0  0  0  0  0  0  0
  -26.2180  -15.6460   20.0000 H   0  0  0  0  0  0  0  0  0  0  0  0
  -30.2800  -26.0510   15.7910 N   0  0  0  0  0  0  0  0  0  0  0  0
  -31.0180  -25.5390   15.3170 H   0  0  0  0  0  0  0  0  0  0  0  0
  -30.3870  -27.0550   15.6860 H   0  0  0  0  0  0  0  0  0  0  0  0
  -28.4270  -26.8060   20.1950 O   0  0  0  0  0  0  0  0  0  0  0  0
  -24.5940  -31.8990   23.2030 C   0  0  0  0  0  0  0  0  0  0  0  0
  -27.2470  -27.4990   20.0980 C   0  0  0  0  0  0  0  0  0  0  0  0
  -23.3810  -30.4900   21.5660 C   0  0  0  0  0  3  0  0  0  0  0  0
  -24.8330  -28.9600   20.1230 C   0  0  0  0  0  0  0  0  0  0  0  0
  -25.9000  -30.8650   21.3530 C   0  0  0  0  0  2  0  0  0  0  0  0
  -25.9850  -29.5010   20.7070 C   0  0  0  0  0  0  0  0  0  0  0  0
  -27.1920  -28.7750   20.6910 C   0  0  0  0  0  3  0  0  0  0  0  0
  -26.0820  -26.9560   19.5170 C   0  0  0  0  0  3  0  0  0  0  0  0
  -24.8740  -27.6850   19.5240 C   0  0  0  0  0  3  0  0  0  0  0  0
  -23.5810  -29.8080   20.1830 C   0  0  0  0  0  2  0  0  0  0  0  0
  -24.6430  -31.0960   22.1010 N   0  0  0  0  0  0  0  0  0  0  0  0
  -23.5100  -32.1880   23.7320 O   0  0  0  0  0  0  0  0  0  0  0  0
  -22.7370  -29.4670   22.5290 C   0  0  0  0  0  0  0  0  0  0  0  0
  -21.4140  -29.2820   22.4060 N   0  0  0  0  0  0  0  0  0  0  0  0
  -23.4250  -28.8420   23.3390 O   0  0  0  0  0  0  0  0  0  0  0  0
  -20.9170  -29.8410   21.7270 H   0  0  0  0  0  0  0  0  0  0  0  0
  -18.0450  -28.0780   22.9060 C   0  0  0  0  0  0  0  0  0  0  0  0
  -20.6020  -28.3400   23.1750 C   0  0  0  0  0  3  0  0  0  0  0  0
  -20.7060  -26.9100   22.5970 C   0  0  0  0  0  2  0  0  0  0  0  0
  -19.6040  -26.5880   21.5810 C   0  0  0  0  0  2  0  0  0  0  0  0
  -18.2230  -26.7300   22.2270 C   0  0  0  0  0  2  0  0  0  0  0  0
  -19.1640  -28.8410   23.3370 C   0  0  0  0  0  0  0  0  0  0  0  0
  -18.9430  -30.1030   23.9310 C   0  0  0  0  0  3  0  0  0  0  0  0
  -17.6370  -30.6040   24.0940 C   0  0  0  0  0  3  0  0  0  0  0  0
  -16.5340  -29.8400   23.6800 C   0  0  0  0  0  3  0  0  0  0  0  0
  -16.7390  -28.5770   23.0950 C   0  0  0  0  0  3  0  0  0  0  0  0
  -25.8840  -32.5210   23.8270 C   0  0  0  0  0  3  0  0  0  0  0  0
  -25.5790  -33.9150   24.1700 N   0  0  0  0  0  0  0  0  0  0  0  0
  -25.9080  -34.9730   23.4160 C   0  0  0  0  0  0  0  0  0  0  0  0
  -26.5730  -34.8770   22.3810 O   0  0  0  0  0  0  0  0  0  0  0  0
  -24.9890  -34.0630   24.9750 H   0  0  0  0  0  0  0  0  0  0  0  0
  -24.1730  -36.7590   23.0810 C   0  0  0  0  0  1  0  0  0  0  0  0
  -25.4210  -36.3570   23.8840 C   0  0  0  0  0  3  0  0  0  0  0  0
  -27.5630  -37.2330   24.7030 C   0  0  0  0  0  1  0  0  0  0  0  0
  -26.4510  -37.4130   23.7730 N   0  0  0  0  0  0  0  0  0  0  0  0
  -26.0470  -38.3310   23.9380 H   0  0  0  0  0  0  0  0  0  0  0  0
  -26.4120  -31.7380   25.0910 C   0  0  1  0  0  0  0  0  0  0  0  0
  -25.3310  -31.4950   26.1690 C   0  0  0  0  0  1  0  0  0  0  0  0
  -26.9860  -30.3630   24.6770 C   0  0  0  0  0  1  0  0  0  0  0  0
  -27.5700  -32.5260   25.7500 C   0  0  0  0  0  1  0  0  0  0  0  0
  1  4  1  0
  3  6  2  0
  4  7  1  0
  4  2  2  0
  5  1  2  0
  5  3  1  0
  6  2  1  0
  6 56  1  0
  7  8  1  0
  8 11  1  0
  8 10  1  0
  9  7  2  0
 11 12  1  0
 13 12  1  0
 13 14  1  0
 15 23  1  0
 16 21  1  0
 17 18  1  0
 17 16  1  0
 19 18  1  0
 19 28  1  0
 19 20  1  0
 21 15  1  0
 21 20  1  0
 22 15  2  0
 23 14  1  0
 23 24  1  0
 25 26  2  0
 26 45  1  0
 27 26  1  0
 27 30  1  0
 28 25  1  0
 28 29  1  0
 29 27  2  0
 30 31  1  0
 31 32  2  0
 33 36  1  0
 33 32  1  0
 34 33  2  0
 35 34  1  0
 35 30  2  0
 36 37  1  0
 37 38  1  0
 38 39  2  0
 40 39  1  0
 40 44  1  0
 41 40  2  0
 42 37  2  0
 42 41  1  0
 43 42  1  0
 45 46  1  0
 46 49  1  0
 46 48  1  0
 47 45  2  0
 50 51  1  0
 50 25  1  0
 52 50  1  0
 53  5  1  0
 54 53  1  0
 55 53  1  0
 57 68  2  0
 58 56  1  0
 58 63  1  0
 59 67  1  0
 59 69  1  0
 60 66  1  0
 60 62  1  0
 61 67  1  0
 62 61  1  0
 63 62  2  0
 64 65  1  0
 64 58  2  0
 65 60  2  0
 66 59  1  0
 67 57  1  0
 69 71  2  0
 70 69  1  0
 72 70  1  0
 73 82  2  0
 73 78  1  0
 74 70  1  0
 74 78  1  0
 75 74  1  0
 76 77  1  0
 76 75  1  0
 77 73  1  0
 78 79  2  0
 79 80  1  0
 81 80  2  0
 82 81  1  0
 83 57  1  0
 83 84  1  0
 83 93  1  0
 84 87  1  0
 85 89  1  0
 85 84  1  0
 86 85  2  0
 89 88  1  0
 91 89  1  0
 91 92  1  0
 91 90  1  0
 93 96  1  1
 93 94  1  0
 95 93  1  0
M  ISO  4   6 101  15 100  23 100  56 101
M  END
>  <TORSDO>  (77) 
F 22

>  <SCORE>  (77) 
-13.308

>  <name>  (77) 
76

>  <ligand_id>  (77) 
76

>  <original_smiles>  (77) 
[H]c1c([H])c([H])c2c(c1[H])C([H])([H])C([H])([H])C([H])([H])C2([H])N([H])C(=O)C1([H])N(C(=O)C([H])(N([H])C(=O)C([H])(N([H])C([H])([H])[H])C([H])([H])[H])C(C([H])([H])[H])(C([H])([H])[H])C([H])([H])[H])C([H])([H])c2c([H])c(Oc3c([H])c(C(=O)N([H])C([H])([H])C([H])([H])C([H])([H])C([H])([H])N([H])C(=O)N4C([H])([H])C([H])([H])C([H])([H])C([H])(n5nc(-c6c([H])c([H])c(Oc7c([H])c([H])c(F)c([H])c7F)c([H])c6[H])c(C(=O)N([H])[H])c5N([H])[H])C4([H])[H])c([H])c(N([H])[H])c3[H])c([H])c([H])c2C1([H])[H]

>  <smiles>  (77) 
[H]c1c([H])c([H])c2c(c1[H])C([H])([H])C([H])([H])C([H])([H])C2([H])N([H])C(=O)C1([H])N(C(=O)C([H])(N([H])C(=O)C([H])(N([H])C([H])([H])[H])C([H])([H])[H])C(C([H])([H])[H])(C([H])([H])[H])C([H])([H])[H])C([H])([H])c2c([H])c(Oc3c([H])c(C(=O)N([H])C([H])([H])C([H])([H])C([H])([H])C([H])([H])N([H])C(=O)N4C([H])([H])C([H])([H])C([H])([H])C([H])(n5nc(-c6c([H])c([H])c(Oc7c([H])c([H])c(F)c([H])c7F)c([H])c6[H])c(C(=O)N([H])[H])c5N([H])[H])C4([H])[H])c([H])c(N([H])[H])c3[H])c([H])c([H])c2C1([H])[H]

$$$$
77:0:0
     RDKit          3D

 94102  0  0  1  0  0  0  0  0999 V2000
  -29.0530  -23.7790   18.1650 C   0  0  0  0  0  3  0  0  0  0  0  0
  -29.2060  -22.4770   18.7230 C   0  0  0  0  0  0  0  0  0  0  0  0
  -29.0050  -24.7710   19.1060 C   0  0  0  0  0  0  0  0  0  0  0  0
  -29.3200  -22.4930   20.0980 C   0  0  0  0  0  0  0  0  0  0  0  0
  -29.5310  -21.3580   21.0520 C   0  0  0  0  0  1  0  0  0  0  0  0
  -29.1890  -24.1170   20.7140 S   0  0  0  0  0  0  0  0  0  0  0  0
  -29.2430  -21.2570   17.8750 C   0  0  0  0  0  0  0  0  0  0  0  0
  -28.4910  -20.2680   18.3530 N   0  0  0  0  0  0  0  0  0  0  0  0
  -29.8440  -21.1990   16.8000 O   0  0  0  0  0  0  0  0  0  0  0  0
  -28.0020  -20.4610   19.2150 H   0  0  0  0  0  0  0  0  0  0  0  0
  -28.2540  -18.9910   17.7160 C   0  0  0  0  0  2  0  0  0  0  0  0
  -27.9520  -17.9250   18.7710 C   0  0  0  0  0  2  0  0  0  0  0  0
  -29.1400  -17.5820   19.7030 C   0  0  0  0  0  2  0  0  0  0  0  0
  -28.9830  -16.1310   20.1610 C   0  0  0  0  0  2  0  0  0  0  0  0
  -30.7090  -14.4780   20.5410 C   0  0  0  0  0  0  0  0  0  0  0  0
  -30.3700  -12.3210   19.4070 C   0  0  0  0  0  2  0  0  0  0  0  0
  -29.4380  -12.4920   18.1910 C   0  0  0  0  0  2  0  0  0  0  0  0
  -27.9660  -12.3160   18.6170 C   0  0  0  0  0  2  0  0  0  0  0  0
  -27.5920  -13.1790   19.8470 C   0  0  0  0  0  3  0  0  0  0  0  0
  -28.6550  -13.0570   20.9710 C   0  0  0  0  0  2  0  0  0  0  0  0
  -29.9870  -13.3320   20.4010 N   0  0  0  0  0  0  0  0  0  0  0  0
  -31.8720  -14.6010   20.1620 O   0  0  0  0  0  0  0  0  0  0  0  0
  -30.0610  -15.5700   20.9710 N   0  0  0  0  0  0  0  0  0  0  0  0
  -30.6860  -16.2750   21.3310 H   0  0  0  0  0  0  0  0  0  0  0  0
  -25.2030  -13.8130   20.5450 C   0  0  0  0  0  0  0  0  0  0  0  0
  -24.1330  -13.0460   20.9150 C   0  0  0  0  0  0  0  0  0  0  0  0
  -24.5990  -11.6950   20.9020 C   0  0  0  0  0  0  0  0  0  0  0  0
  -26.2470  -12.9220   20.3310 N   0  0  0  0  0  0  0  0  0  0  0  0
  -25.8890  -11.6480   20.6050 N   0  0  0  0  0  0  0  0  0  0  0  0
  -23.8790  -10.4350   21.0930 C   0  0  0  0  0  0  0  0  0  0  0  0
  -24.3250   -9.4660   22.0170 C   0  0  0  0  0  3  0  0  0  0  0  0
  -23.6060   -8.2650   22.1940 C   0  0  0  0  0  3  0  0  0  0  0  0
  -22.4270   -8.0290   21.4460 C   0  0  0  0  0  0  0  0  0  0  0  0
  -22.0020   -8.9870   20.5090 C   0  0  0  0  0  3  0  0  0  0  0  0
  -22.7240  -10.1790   20.3290 C   0  0  0  0  0  3  0  0  0  0  0  0
  -21.6780   -6.8820   21.5350 O   0  0  0  0  0  0  0  0  0  0  0  0
  -21.6580   -6.1240   22.6770 C   0  0  0  0  0  0  0  0  0  0  0  0
  -21.2700   -6.6640   23.9240 C   0  0  0  0  0  3  0  0  0  0  0  0
  -21.1940   -5.8310   25.0580 C   0  0  0  0  0  3  0  0  0  0  0  0
  -21.5000   -4.4620   24.9480 C   0  0  0  0  0  0  0  0  0  0  0  0
  -21.8840   -3.9220   23.7070 C   0  0  0  0  0  3  0  0  0  0  0  0
  -21.9600   -4.7520   22.5750 C   0  0  0  0  0  0  0  0  0  0  0  0
  -22.3070   -4.2230   21.3760 F   0  0  0  0  0  0  0  0  0  0  0  0
  -21.4200   -3.6610   26.0350 F   0  0  0  0  0  0  0  0  0  0  0  0
  -22.7310  -13.5220   21.1660 C   0  0  0  0  0  0  0  0  0  0  0  0
  -21.9950  -12.8320   22.0300 N   0  0  0  0  0  0  0  0  0  0  0  0
  -22.2950  -14.5410   20.6300 O   0  0  0  0  0  0  0  0  0  0  0  0
  -22.3570  -12.0070   22.4840 H   0  0  0  0  0  0  0  0  0  0  0  0
  -21.0570  -13.1370   22.2420 H   0  0  0  0  0  0  0  0  0  0  0  0
  -25.3620  -15.1840   20.3500 N   0  0  0  0  0  0  0  0  0  0  0  0
  -24.6000  -15.8420   20.4670 H   0  0  0  0  0  0  0  0  0  0  0  0
  -26.2080  -15.6160   20.0040 H   0  0  0  0  0  0  0  0  0  0  0  0
  -28.8560  -26.2330   18.8490 C   0  0  0  0  0  2  0  0  0  0  0  0
  -28.4790  -26.8470   20.0760 O   0  0  0  0  0  0  0  0  0  0  0  0
  -24.6450  -31.8920   23.2440 C   0  0  0  0  0  0  0  0  0  0  0  0
  -27.2730  -27.4960   20.1070 C   0  0  0  0  0  0  0  0  0  0  0  0
  -23.4190  -30.4850   21.6170 C   0  0  0  0  0  3  0  0  0  0  0  0
  -24.8580  -28.9480   20.1760 C   0  0  0  0  0  0  0  0  0  0  0  0
  -25.9370  -30.8530   21.3910 C   0  0  0  0  0  2  0  0  0  0  0  0
  -26.0150  -29.4840   20.7540 C   0  0  0  0  0  0  0  0  0  0  0  0
  -27.2200  -28.7550   20.7330 C   0  0  0  0  0  3  0  0  0  0  0  0
  -26.0960  -26.9490   19.5480 C   0  0  0  0  0  3  0  0  0  0  0  0
  -24.8880  -27.6740   19.5790 C   0  0  0  0  0  3  0  0  0  0  0  0
  -23.6110  -29.7970   20.2360 C   0  0  0  0  0  2  0  0  0  0  0  0
  -24.6860  -31.0870   22.1450 N   0  0  0  0  0  0  0  0  0  0  0  0
  -23.5670  -32.1850   23.7790 O   0  0  0  0  0  0  0  0  0  0  0  0
  -22.7810  -29.4630   22.5840 C   0  0  0  0  0  0  0  0  0  0  0  0
  -21.4570  -29.2740   22.4630 N   0  0  0  0  0  0  0  0  0  0  0  0
  -23.4730  -28.8420   23.3950 O   0  0  0  0  0  0  0  0  0  0  0  0
  -20.9620  -29.8270   21.7780 H   0  0  0  0  0  0  0  0  0  0  0  0
  -18.0930  -28.0580   22.9600 C   0  0  0  0  0  0  0  0  0  0  0  0
  -20.6470  -28.3330   23.2360 C   0  0  0  0  0  3  0  0  0  0  0  0
  -20.7610  -26.9010   22.6630 C   0  0  0  0  0  2  0  0  0  0  0  0
  -19.6630  -26.5680   21.6500 C   0  0  0  0  0  2  0  0  0  0  0  0
  -18.2790  -26.7070   22.2910 C   0  0  0  0  0  2  0  0  0  0  0  0
  -19.2050  -28.8290   23.3890 C   0  0  0  0  0  0  0  0  0  0  0  0
  -18.9780  -30.0950   23.9710 C   0  0  0  0  0  3  0  0  0  0  0  0
  -17.6700  -30.5910   24.1310 C   0  0  0  0  0  3  0  0  0  0  0  0
  -16.5710  -29.8150   23.7180 C   0  0  0  0  0  3  0  0  0  0  0  0
  -16.7840  -28.5510   23.1410 C   0  0  0  0  0  3  0  0  0  0  0  0
  -25.9440  -32.5080   23.8570 C   0  0  0  0  0  3  0  0  0  0  0  0
  -25.6480  -33.9060   24.1970 N   0  0  0  0  0  0  0  0  0  0  0  0
  -25.9760  -34.9580   23.4350 C   0  0  0  0  0  0  0  0  0  0  0  0
  -26.6340  -34.8530   22.3950 O   0  0  0  0  0  0  0  0  0  0  0  0
  -25.0680  -34.0610   25.0080 H   0  0  0  0  0  0  0  0  0  0  0  0
  -24.2500  -36.7530   23.0960 C   0  0  0  0  0  1  0  0  0  0  0  0
  -25.4960  -36.3450   23.8980 C   0  0  0  0  0  3  0  0  0  0  0  0
  -27.6410  -37.2190   24.7120 C   0  0  0  0  0  1  0  0  0  0  0  0
  -26.5320  -37.3940   23.7790 N   0  0  0  0  0  0  0  0  0  0  0  0
  -26.1300  -38.3160   23.9340 H   0  0  0  0  0  0  0  0  0  0  0  0
  -26.4750  -31.7290   25.1210 C   0  0  1  0  0  0  0  0  0  0  0  0
  -25.3950  -31.4900   26.2010 C   0  0  0  0  0  1  0  0  0  0  0  0
  -27.0480  -30.3520   24.7120 C   0  0  0  0  0  1  0  0  0  0  0  0
  -27.6380  -32.5160   25.7730 C   0  0  0  0  0  1  0  0  0  0  0  0
  1  2  1  0
  1  3  2  0
  2  4  2  0
  3  6  1  0
  4  6  1  0
  4  5  1  0
  7  8  1  0
  7  2  1  0
  8 10  1  0
  9  7  2  0
 11  8  1  0
 11 12  1  0
 12 13  1  0
 13 14  1  0
 14 23  1  0
 15 23  1  0
 16 21  1  0
 17 18  1  0
 17 16  1  0
 19 18  1  0
 19 28  1  0
 19 20  1  0
 21 15  1  0
 21 20  1  0
 22 15  2  0
 23 24  1  0
 25 26  2  0
 26 45  1  0
 27 26  1  0
 27 30  1  0
 28 25  1  0
 28 29  1  0
 29 27  2  0
 30 31  1  0
 31 32  2  0
 33 36  1  0
 33 32  1  0
 34 33  2  0
 35 34  1  0
 35 30  2  0
 36 37  1  0
 37 38  1  0
 38 39  2  0
 40 39  1  0
 40 44  1  0
 41 40  2  0
 42 37  2  0
 42 41  1  0
 43 42  1  0
 45 46  1  0
 46 49  1  0
 46 48  1  0
 47 45  2  0
 50 51  1  0
 50 25  1  0
 52 50  1  0
 53  3  1  0
 53 54  1  0
 54 56  1  0
 55 66  2  0
 56 61  1  0
 57 65  1  0
 57 67  1  0
 58 64  1  0
 58 60  1  0
 59 65  1  0
 60 59  1  0
 61 60  2  0
 62 63  1  0
 62 56  2  0
 63 58  2  0
 64 57  1  0
 65 55  1  0
 67 69  2  0
 68 67  1  0
 70 68  1  0
 71 80  2  0
 71 76  1  0
 72 68  1  0
 72 76  1  0
 73 72  1  0
 74 75  1  0
 74 73  1  0
 75 71  1  0
 76 77  2  0
 77 78  1  0
 79 78  2  0
 80 79  1  0
 81 55  1  0
 81 82  1  0
 81 91  1  0
 82 85  1  0
 83 87  1  0
 83 82  1  0
 84 83  2  0
 87 86  1  0
 89 87  1  0
 89 90  1  0
 89 88  1  0
 91 94  1  1
 91 92  1  0
 93 91  1  0
M  ISO  4  15 100  23 100  53 101  54 101
M  END
>  <TORSDO>  (78) 
F 22

>  <SCORE>  (78) 
-13.262

>  <name>  (78) 
77

>  <ligand_id>  (78) 
77

>  <original_smiles>  (78) 
[H]c1c([H])c([H])c2c(c1[H])C([H])([H])C([H])([H])C([H])([H])C2([H])N([H])C(=O)C1([H])N(C(=O)C([H])(N([H])C(=O)C([H])(N([H])C([H])([H])[H])C([H])([H])[H])C(C([H])([H])[H])(C([H])([H])[H])C([H])([H])[H])C([H])([H])c2c([H])c(OC([H])([H])c3sc(C([H])([H])[H])c(C(=O)N([H])C([H])([H])C([H])([H])C([H])([H])C([H])([H])N([H])C(=O)N4C([H])([H])C([H])([H])C([H])([H])C([H])(n5nc(-c6c([H])c([H])c(Oc7c([H])c([H])c(F)c([H])c7F)c([H])c6[H])c(C(=O)N([H])[H])c5N([H])[H])C4([H])[H])c3[H])c([H])c([H])c2C1([H])[H]

>  <smiles>  (78) 
[H]c1c([H])c([H])c2c(c1[H])C([H])([H])C([H])([H])C([H])([H])C2([H])N([H])C(=O)C1([H])N(C(=O)C([H])(N([H])C(=O)C([H])(N([H])C([H])([H])[H])C([H])([H])[H])C(C([H])([H])[H])(C([H])([H])[H])C([H])([H])[H])C([H])([H])c2c([H])c(OC([H])([H])c3sc(C([H])([H])[H])c(C(=O)N([H])C([H])([H])C([H])([H])C([H])([H])C([H])([H])N([H])C(=O)N4C([H])([H])C([H])([H])C([H])([H])C([H])(n5nc(-c6c([H])c([H])c(Oc7c([H])c([H])c(F)c([H])c7F)c([H])c6[H])c(C(=O)N([H])[H])c5N([H])[H])C4([H])[H])c3[H])c([H])c([H])c2C1([H])[H]

$$$$
78:0:0
     RDKit          3D

 92101  0  0  1  0  0  0  0  0999 V2000
  -31.1480  -19.5520   18.9040 C   0  0  0  0  0  2  0  0  0  0  0  0
  -32.1010  -19.4760   20.1200 C   0  0  0  0  0  2  0  0  0  0  0  0
  -29.2760  -17.9910   19.7100 C   0  0  0  0  0  2  0  0  0  0  0  0
  -30.8140  -17.9040   21.6820 C   0  0  0  0  0  2  0  0  0  0  0  0
  -30.3340  -17.1030   20.4380 C   0  0  0  0  0  3  0  0  0  0  0  0
  -29.7400  -19.4930   19.5360 C   0  0  0  0  0  3  0  0  0  0  0  0
  -31.1440  -19.4010   21.3340 C   0  0  0  0  0  3  0  0  0  0  0  0
  -29.9320  -20.1360   20.8650 N   0  0  1  0  0  4  0  0  0  0  0  0
  -29.1530  -19.9220   21.4700 H   0  0  0  0  0  0  0  0  0  0  0  0
  -30.6440  -14.5730   20.4050 C   0  0  0  0  0  0  0  0  0  0  0  0
  -30.3380  -12.3800   19.3100 C   0  0  0  0  0  2  0  0  0  0  0  0
  -29.3880  -12.5620   18.1080 C   0  0  0  0  0  2  0  0  0  0  0  0
  -27.9200  -12.4150   18.5520 C   0  0  0  0  0  2  0  0  0  0  0  0
  -27.5880  -13.2600   19.8120 C   0  0  0  0  0  3  0  0  0  0  0  0
  -28.6580  -13.0860   20.9140 C   0  0  0  0  0  2  0  0  0  0  0  0
  -29.9670  -13.3900   20.3180 N   0  0  0  0  0  0  0  0  0  0  0  0
  -31.8070  -14.6790   20.0100 O   0  0  0  0  0  0  0  0  0  0  0  0
  -29.9190  -15.6860   20.7120 N   0  0  0  0  0  0  0  0  0  0  0  0
  -28.9670  -15.5280   21.0070 H   0  0  0  0  0  0  0  0  0  0  0  0
  -25.2030  -13.8550   20.5630 C   0  0  0  0  0  0  0  0  0  0  0  0
  -24.1390  -13.0800   20.9360 C   0  0  0  0  0  0  0  0  0  0  0  0
  -24.5980  -11.7280   20.8860 C   0  0  0  0  0  0  0  0  0  0  0  0
  -26.2440  -12.9760   20.3090 N   0  0  0  0  0  0  0  0  0  0  0  0
  -25.8860  -11.6910   20.5640 N   0  0  0  0  0  0  0  0  0  0  0  0
  -23.8720  -10.4650   21.0710 C   0  0  0  0  0  0  0  0  0  0  0  0
  -24.3090   -9.4890   21.9940 C   0  0  0  0  0  3  0  0  0  0  0  0
  -23.5840   -8.2910   22.1670 C   0  0  0  0  0  3  0  0  0  0  0  0
  -22.4060   -8.0600   21.4170 C   0  0  0  0  0  0  0  0  0  0  0  0
  -21.9880   -9.0240   20.4840 C   0  0  0  0  0  3  0  0  0  0  0  0
  -22.7140  -10.2140   20.3080 C   0  0  0  0  0  3  0  0  0  0  0  0
  -21.6510   -6.9150   21.5000 O   0  0  0  0  0  0  0  0  0  0  0  0
  -21.6010   -6.1670   22.6500 C   0  0  0  0  0  0  0  0  0  0  0  0
  -21.1440   -6.7080   23.8710 C   0  0  0  0  0  3  0  0  0  0  0  0
  -21.0440   -5.8860   25.0110 C   0  0  0  0  0  3  0  0  0  0  0  0
  -21.3910   -4.5230   24.9310 C   0  0  0  0  0  0  0  0  0  0  0  0
  -21.8410   -3.9820   23.7130 C   0  0  0  0  0  3  0  0  0  0  0  0
  -21.9430   -4.8020   22.5750 C   0  0  0  0  0  0  0  0  0  0  0  0
  -22.3570   -4.2710   21.4000 F   0  0  0  0  0  0  0  0  0  0  0  0
  -21.2870   -3.7320   26.0230 F   0  0  0  0  0  0  0  0  0  0  0  0
  -22.7460  -13.5560   21.2270 C   0  0  0  0  0  0  0  0  0  0  0  0
  -22.0230  -12.8490   22.0890 N   0  0  0  0  0  0  0  0  0  0  0  0
  -22.3060  -14.5910   20.7250 O   0  0  0  0  0  0  0  0  0  0  0  0
  -22.3920  -12.0120   22.5160 H   0  0  0  0  0  0  0  0  0  0  0  0
  -21.0880  -13.1500   22.3250 H   0  0  0  0  0  0  0  0  0  0  0  0
  -25.3660  -15.2280   20.3960 N   0  0  0  0  0  0  0  0  0  0  0  0
  -24.5970  -15.8780   20.5130 H   0  0  0  0  0  0  0  0  0  0  0  0
  -26.2030  -15.6670   20.0330 H   0  0  0  0  0  0  0  0  0  0  0  0
  -30.1290  -21.6470   20.8890 C   0  0  0  0  0  2  0  0  0  0  0  0
  -28.9490  -22.5920   20.4570 C   0  0  0  0  0  2  0  0  0  0  0  0
  -29.2590  -24.1370   20.5920 C   0  0  0  0  0  3  0  0  0  0  0  0
  -28.1230  -25.1140   20.1290 C   0  0  0  0  0  3  0  0  0  0  0  0
  -28.3400  -26.5500   20.3150 O   0  0  0  0  0  0  0  0  0  0  0  0
  -24.6030  -31.9220   23.2760 C   0  0  0  0  0  0  0  0  0  0  0  0
  -27.2120  -27.3720   20.2500 C   0  0  0  0  0  0  0  0  0  0  0  0
  -23.3990  -30.5160   21.6430 C   0  0  0  0  0  3  0  0  0  0  0  0
  -24.8470  -28.9630   20.2290 C   0  0  0  0  0  0  0  0  0  0  0  0
  -25.9380  -30.8310   21.4700 C   0  0  0  0  0  2  0  0  0  0  0  0
  -26.0140  -29.4560   20.8270 C   0  0  0  0  0  0  0  0  0  0  0  0
  -27.1990  -28.6720   20.8300 C   0  0  0  0  0  3  0  0  0  0  0  0
  -26.0230  -26.9240   19.6250 C   0  0  0  0  0  3  0  0  0  0  0  0
  -24.8520  -27.6990   19.6200 C   0  0  0  0  0  3  0  0  0  0  0  0
  -23.6140  -29.8360   20.2670 C   0  0  0  0  0  2  0  0  0  0  0  0
  -24.6660  -31.1020   22.1890 N   0  0  0  0  0  0  0  0  0  0  0  0
  -23.5140  -32.2310   23.7800 O   0  0  0  0  0  0  0  0  0  0  0  0
  -22.7290  -29.5030   22.6020 C   0  0  0  0  0  0  0  0  0  0  0  0
  -21.4040  -29.3280   22.4660 N   0  0  0  0  0  0  0  0  0  0  0  0
  -23.4010  -28.8780   23.4270 O   0  0  0  0  0  0  0  0  0  0  0  0
  -20.9230  -29.8850   21.7740 H   0  0  0  0  0  0  0  0  0  0  0  0
  -18.0150  -28.1700   22.9580 C   0  0  0  0  0  0  0  0  0  0  0  0
  -20.5750  -28.3980   23.2330 C   0  0  0  0  0  3  0  0  0  0  0  0
  -20.6620  -26.9670   22.6550 C   0  0  0  0  0  2  0  0  0  0  0  0
  -19.5580  -26.6580   21.6390 C   0  0  0  0  0  2  0  0  0  0  0  0
  -18.1770  -26.8190   22.2820 C   0  0  0  0  0  2  0  0  0  0  0  0
  -19.1420  -28.9170   23.3920 C   0  0  0  0  0  0  0  0  0  0  0  0
  -18.9360  -30.1830   23.9840 C   0  0  0  0  0  3  0  0  0  0  0  0
  -17.6370  -30.6990   24.1490 C   0  0  0  0  0  3  0  0  0  0  0  0
  -16.5250  -29.9460   23.7320 C   0  0  0  0  0  3  0  0  0  0  0  0
  -16.7140  -28.6850   23.1420 C   0  0  0  0  0  3  0  0  0  0  0  0
  -25.8880  -32.5380   23.9130 C   0  0  0  0  0  3  0  0  0  0  0  0
  -26.3890  -31.7620   25.1930 C   0  0  1  0  0  0  0  0  0  0  0  0
  -25.2830  -31.5280   26.2490 C   0  0  0  0  0  1  0  0  0  0  0  0
  -26.9720  -30.3830   24.8070 C   0  0  0  0  0  1  0  0  0  0  0  0
  -27.5360  -32.5520   25.8680 C   0  0  0  0  0  1  0  0  0  0  0  0
  -25.5890  -33.9380   24.2400 N   0  0  0  0  0  0  0  0  0  0  0  0
  -25.9130  -34.9840   23.4700 C   0  0  0  0  0  0  0  0  0  0  0  0
  -26.5700  -34.8720   22.4310 O   0  0  0  0  0  0  0  0  0  0  0  0
  -25.0050  -34.0990   25.0480 H   0  0  0  0  0  0  0  0  0  0  0  0
  -24.1810  -36.7750   23.1290 C   0  0  0  0  0  1  0  0  0  0  0  0
  -25.4340  -36.3760   23.9240 C   0  0  0  0  0  3  0  0  0  0  0  0
  -27.5770  -37.2690   24.7210 C   0  0  0  0  0  1  0  0  0  0  0  0
  -26.4660  -37.4270   23.7880 N   0  0  0  0  0  0  0  0  0  0  0  0
  -26.0620  -38.3480   23.9290 H   0  0  0  0  0  0  0  0  0  0  0  0
  1  2  1  0
  3  5  1  0
  5 18  1  0
  5  4  1  0
  6  1  1  0
  6  3  1  0
  6  8  1  0
  7  2  1  0
  7  4  1  0
  8 48  1  0
  8  7  1  0
  8  9  1  1
 10 18  1  0
 11 16  1  0
 12 13  1  0
 12 11  1  0
 14 13  1  0
 14 23  1  0
 14 15  1  0
 16 10  1  0
 16 15  1  0
 17 10  2  0
 18 19  1  0
 20 21  2  0
 21 40  1  0
 22 21  1  0
 22 25  1  0
 23 20  1  0
 23 24  1  0
 24 22  2  0
 25 26  1  0
 26 27  2  0
 28 31  1  0
 28 27  1  0
 29 28  2  0
 30 29  1  0
 30 25  2  0
 31 32  1  0
 32 33  1  0
 33 34  2  0
 35 34  1  0
 35 39  1  0
 36 35  2  0
 37 32  2  0
 37 36  1  0
 38 37  1  0
 40 41  1  0
 41 44  1  0
 41 43  1  0
 42 40  2  0
 45 46  1  0
 45 20  1  0
 47 45  1  0
 49 50  1  0
 49 48  1  0
 51 52  1  0
 51 50  2  0
 53 64  2  0
 54 52  1  0
 54 59  1  0
 55 63  1  0
 55 65  1  0
 56 62  1  0
 56 58  1  0
 57 63  1  0
 58 59  2  0
 58 57  1  0
 60 54  2  0
 61 60  1  0
 61 56  2  0
 62 55  1  0
 63 53  1  0
 65 67  2  0
 66 65  1  0
 68 66  1  0
 69 78  2  0
 69 74  1  0
 70 66  1  0
 70 74  1  0
 71 70  1  0
 72 73  1  0
 72 71  1  0
 73 69  1  0
 74 75  2  0
 75 76  1  0
 77 76  2  0
 78 77  1  0
 79 53  1  0
 79 84  1  0
 79 80  1  0
 80 83  1  1
 80 81  1  0
 82 80  1  0
 84 87  1  0
 85 89  1  0
 85 84  1  0
 86 85  2  0
 89 88  1  0
 91 89  1  0
 91 92  1  0
 91 90  1  0
M  ISO  4  10 100  18 100  51 101  52 101
M  END
>  <TORSDO>  (79) 
F 20

>  <SCORE>  (79) 
-14.037

>  <name>  (79) 
78

>  <ligand_id>  (79) 
78

>  <original_smiles>  (79) 
[H]c1c([H])c([H])c2c(c1[H])C([H])([H])C([H])([H])C([H])([H])C2([H])N([H])C(=O)C1([H])N(C(=O)C([H])(N([H])C(=O)C([H])(N([H])C([H])([H])[H])C([H])([H])[H])C(C([H])([H])[H])(C([H])([H])[H])C([H])([H])[H])C([H])([H])c2c([H])c(OC([H])([H])C([H])([H])C([H])([H])C([H])([H])[N+]3([H])C4([H])C([H])([H])C([H])([H])C3([H])C([H])([H])C([H])(N([H])C(=O)N3C([H])([H])C([H])([H])C([H])([H])C([H])(n5nc(-c6c([H])c([H])c(Oc7c([H])c([H])c(F)c([H])c7F)c([H])c6[H])c(C(=O)N([H])[H])c5N([H])[H])C3([H])[H])C4([H])[H])c([H])c([H])c2C1([H])[H]

>  <smiles>  (79) 
[H]c1c([H])c([H])c2c(c1[H])C([H])([H])C([H])([H])C([H])([H])C2([H])N([H])C(=O)C1([H])N(C(=O)C([H])(N([H])C(=O)C([H])(N([H])C([H])([H])[H])C([H])([H])[H])C(C([H])([H])[H])(C([H])([H])[H])C([H])([H])[H])C([H])([H])c2c([H])c(OC([H])([H])C([H])([H])C([H])([H])C([H])([H])[N+]3([H])C4([H])C([H])([H])C([H])([H])C3([H])C([H])([H])C([H])(N([H])C(=O)N3C([H])([H])C([H])([H])C([H])([H])C([H])(n5nc(-c6c([H])c([H])c(Oc7c([H])c([H])c(F)c([H])c7F)c([H])c6[H])c(C(=O)N([H])[H])c5N([H])[H])C3([H])[H])C4([H])[H])c([H])c([H])c2C1([H])[H]

$$$$
79:0:0
     RDKit          3D

 92100  0  0  1  0  0  0  0  0999 V2000
  -28.4820  -21.1500   18.3950 C   0  0  0  0  0  3  0  0  0  0  0  0
  -29.0660  -20.1370   19.1650 C   0  0  0  0  0  3  0  0  0  0  0  0
  -28.6300  -22.4890   18.7710 C   0  0  0  0  0  3  0  0  0  0  0  0
  -29.8020  -20.4310   20.3370 C   0  0  0  0  0  0  0  0  0  0  0  0
  -29.3330  -22.8550   19.9420 C   0  0  0  0  0  0  0  0  0  0  0  0
  -29.9140  -21.8120   20.7450 C   0  0  0  0  0  0  0  0  0  0  0  0
  -30.6630  -22.1890   22.0270 C   0  0  0  0  0  1  0  0  0  0  0  0
  -30.4820  -19.2590   21.0270 C   0  0  0  0  0  0  0  0  0  0  0  0
  -31.4780  -19.3790   21.7470 O   0  0  0  0  0  0  0  0  0  0  0  0
  -29.9200  -17.8330   20.7850 C   0  0  0  0  0  2  0  0  0  0  0  0
  -30.6000  -16.7050   21.6110 C   0  0  0  0  0  2  0  0  0  0  0  0
  -30.6890  -14.4200   20.5550 C   0  0  0  0  0  0  0  0  0  0  0  0
  -30.3640  -12.3010   19.3320 C   0  0  0  0  0  2  0  0  0  0  0  0
  -29.4240  -12.5260   18.1300 C   0  0  0  0  0  2  0  0  0  0  0  0
  -27.9470  -12.3940   18.5510 C   0  0  0  0  0  2  0  0  0  0  0  0
  -27.6150  -13.2190   19.8230 C   0  0  0  0  0  3  0  0  0  0  0  0
  -28.6610  -12.9630   20.9300 C   0  0  0  0  0  2  0  0  0  0  0  0
  -29.9930  -13.2660   20.3790 N   0  0  0  0  0  0  0  0  0  0  0  0
  -31.7760  -14.6410   20.0150 O   0  0  0  0  0  0  0  0  0  0  0  0
  -30.0800  -15.3610   21.3000 N   0  0  0  0  0  0  0  0  0  0  0  0
  -29.1870  -15.1060   21.6970 H   0  0  0  0  0  0  0  0  0  0  0  0
  -25.2100  -13.8400   20.5040 C   0  0  0  0  0  0  0  0  0  0  0  0
  -24.1360  -13.0740   20.8700 C   0  0  0  0  0  0  0  0  0  0  0  0
  -24.5910  -11.7210   20.8500 C   0  0  0  0  0  0  0  0  0  0  0  0
  -26.2550  -12.9550   20.2900 N   0  0  0  0  0  0  0  0  0  0  0  0
  -25.8850  -11.6740   20.5540 N   0  0  0  0  0  0  0  0  0  0  0  0
  -23.8590  -10.4630   21.0430 C   0  0  0  0  0  0  0  0  0  0  0  0
  -24.2880   -9.4950   21.9780 C   0  0  0  0  0  3  0  0  0  0  0  0
  -23.5570   -8.3010   22.1570 C   0  0  0  0  0  3  0  0  0  0  0  0
  -22.3840   -8.0660   21.4020 C   0  0  0  0  0  0  0  0  0  0  0  0
  -21.9740   -9.0220   20.4570 C   0  0  0  0  0  3  0  0  0  0  0  0
  -22.7050  -10.2080   20.2750 C   0  0  0  0  0  3  0  0  0  0  0  0
  -21.6240   -6.9250   21.4930 O   0  0  0  0  0  0  0  0  0  0  0  0
  -21.5760   -6.1790   22.6440 C   0  0  0  0  0  0  0  0  0  0  0  0
  -21.1540   -6.7320   23.8730 C   0  0  0  0  0  3  0  0  0  0  0  0
  -21.0560   -5.9130   25.0150 C   0  0  0  0  0  3  0  0  0  0  0  0
  -21.3670   -4.5430   24.9290 C   0  0  0  0  0  0  0  0  0  0  0  0
  -21.7800   -3.9900   23.7050 C   0  0  0  0  0  3  0  0  0  0  0  0
  -21.8820   -4.8060   22.5650 C   0  0  0  0  0  0  0  0  0  0  0  0
  -22.2620   -4.2630   21.3820 F   0  0  0  0  0  0  0  0  0  0  0  0
  -21.2640   -3.7550   26.0240 F   0  0  0  0  0  0  0  0  0  0  0  0
  -22.7370  -13.5590   21.1270 C   0  0  0  0  0  0  0  0  0  0  0  0
  -21.9980  -12.8720   21.9910 N   0  0  0  0  0  0  0  0  0  0  0  0
  -22.3090  -14.5840   20.5970 O   0  0  0  0  0  0  0  0  0  0  0  0
  -22.3550  -12.0440   22.4450 H   0  0  0  0  0  0  0  0  0  0  0  0
  -21.0600  -13.1830   22.2040 H   0  0  0  0  0  0  0  0  0  0  0  0
  -25.3810  -15.2080   20.3180 N   0  0  0  0  0  0  0  0  0  0  0  0
  -24.6140  -15.8630   20.4140 H   0  0  0  0  0  0  0  0  0  0  0  0
  -26.2360  -15.6460   20.0000 H   0  0  0  0  0  0  0  0  0  0  0  0
  -29.4860  -24.3730   20.2330 C   0  0  0  0  0  3  0  0  0  0  0  0
  -28.2200  -25.2300   19.9600 C   0  0  0  0  0  3  0  0  0  0  0  0
  -28.3620  -26.6420   20.2200 O   0  0  0  0  0  0  0  0  0  0  0  0
  -24.5960  -31.8940   23.2560 C   0  0  0  0  0  0  0  0  0  0  0  0
  -27.2000  -27.4030   20.1800 C   0  0  0  0  0  0  0  0  0  0  0  0
  -23.3790  -30.4940   21.6240 C   0  0  0  0  0  3  0  0  0  0  0  0
  -24.8180  -28.9520   20.1920 C   0  0  0  0  0  0  0  0  0  0  0  0
  -25.9120  -30.8250   21.4270 C   0  0  0  0  0  2  0  0  0  0  0  0
  -25.9830  -29.4550   20.7830 C   0  0  0  0  0  0  0  0  0  0  0  0
  -27.1760  -28.6900   20.7720 C   0  0  0  0  0  3  0  0  0  0  0  0
  -26.0100  -26.9280   19.5740 C   0  0  0  0  0  3  0  0  0  0  0  0
  -24.8280  -27.6890   19.5830 C   0  0  0  0  0  3  0  0  0  0  0  0
  -23.5810  -29.8190   20.2430 C   0  0  0  0  0  2  0  0  0  0  0  0
  -24.6490  -31.0820   22.1620 N   0  0  0  0  0  0  0  0  0  0  0  0
  -23.5120  -32.1990   23.7730 O   0  0  0  0  0  0  0  0  0  0  0  0
  -22.7220  -29.4750   22.5830 C   0  0  0  0  0  0  0  0  0  0  0  0
  -21.3980  -29.2940   22.4470 N   0  0  0  0  0  0  0  0  0  0  0  0
  -23.4010  -28.8510   23.4040 O   0  0  0  0  0  0  0  0  0  0  0  0
  -20.9140  -29.8450   21.7530 H   0  0  0  0  0  0  0  0  0  0  0  0
  -18.0190  -28.1050   22.9260 C   0  0  0  0  0  0  0  0  0  0  0  0
  -20.5750  -28.3580   23.2150 C   0  0  0  0  0  3  0  0  0  0  0  0
  -20.6800  -26.9260   22.6420 C   0  0  0  0  0  2  0  0  0  0  0  0
  -19.5840  -26.6030   21.6210 C   0  0  0  0  0  2  0  0  0  0  0  0
  -18.1980  -26.7530   22.2560 C   0  0  0  0  0  2  0  0  0  0  0  0
  -19.1360  -28.8660   23.3630 C   0  0  0  0  0  0  0  0  0  0  0  0
  -18.9150  -30.1320   23.9480 C   0  0  0  0  0  3  0  0  0  0  0  0
  -17.6100  -30.6350   24.1030 C   0  0  0  0  0  3  0  0  0  0  0  0
  -16.5070  -29.8710   23.6850 C   0  0  0  0  0  3  0  0  0  0  0  0
  -16.7120  -28.6080   23.1010 C   0  0  0  0  0  3  0  0  0  0  0  0
  -25.8860  -32.5050   23.8850 C   0  0  0  0  0  3  0  0  0  0  0  0
  -25.5920  -33.9050   24.2180 N   0  0  0  0  0  0  0  0  0  0  0  0
  -25.9210  -34.9520   23.4520 C   0  0  0  0  0  0  0  0  0  0  0  0
  -26.5790  -34.8410   22.4120 O   0  0  0  0  0  0  0  0  0  0  0  0
  -25.0060  -34.0640   25.0240 H   0  0  0  0  0  0  0  0  0  0  0  0
  -24.1920  -36.7460   23.1140 C   0  0  0  0  0  1  0  0  0  0  0  0
  -25.4450  -36.3440   23.9090 C   0  0  0  0  0  3  0  0  0  0  0  0
  -27.5950  -37.2240   24.7020 C   0  0  0  0  0  1  0  0  0  0  0  0
  -26.4790  -37.3920   23.7740 N   0  0  0  0  0  0  0  0  0  0  0  0
  -26.0810  -38.3150   23.9240 H   0  0  0  0  0  0  0  0  0  0  0  0
  -26.3980  -31.7260   25.1590 C   0  0  1  0  0  0  0  0  0  0  0  0
  -25.3020  -31.4910   26.2250 C   0  0  0  0  0  1  0  0  0  0  0  0
  -26.9690  -30.3460   24.7610 C   0  0  0  0  0  1  0  0  0  0  0  0
  -27.5540  -32.5100   25.8230 C   0  0  0  0  0  1  0  0  0  0  0  0
  1  3  2  0
  1  2  1  0
  2  4  2  0
  3  5  1  0
  4  6  1  0
  4  8  1  0
  5 50  1  0
  5  6  2  0
  6  7  1  0
  8  9  2  0
 10  8  1  0
 10 11  1  0
 12 20  1  0
 13 18  1  0
 14 15  1  0
 14 13  1  0
 16 15  1  0
 16 25  1  0
 16 17  1  0
 18 12  1  0
 18 17  1  0
 19 12  2  0
 20 11  1  0
 20 21  1  0
 22 23  2  0
 23 42  1  0
 24 23  1  0
 24 27  1  0
 25 22  1  0
 25 26  1  0
 26 24  2  0
 27 28  1  0
 28 29  2  0
 30 33  1  0
 30 29  1  0
 31 30  2  0
 32 31  1  0
 32 27  2  0
 33 34  1  0
 34 35  1  0
 35 36  2  0
 37 36  1  0
 37 41  1  0
 38 37  2  0
 39 34  2  0
 39 38  1  0
 40 39  1  0
 42 43  1  0
 43 46  1  0
 43 45  1  0
 44 42  2  0
 47 48  1  0
 47 22  1  0
 49 47  1  0
 51 52  1  0
 51 50  2  0
 53 64  2  0
 54 52  1  0
 54 59  1  0
 55 63  1  0
 55 65  1  0
 56 62  1  0
 56 58  1  0
 57 63  1  0
 58 57  1  0
 59 58  2  0
 60 61  1  0
 60 54  2  0
 61 56  2  0
 62 55  1  0
 63 53  1  0
 65 67  2  0
 66 65  1  0
 68 66  1  0
 69 78  2  0
 69 74  1  0
 70 66  1  0
 70 74  1  0
 71 70  1  0
 72 73  1  0
 72 71  1  0
 73 69  1  0
 74 75  2  0
 75 76  1  0
 77 76  2  0
 78 77  1  0
 79 53  1  0
 79 80  1  0
 79 89  1  0
 80 83  1  0
 81 85  1  0
 81 80  1  0
 82 81  2  0
 85 84  1  0
 87 85  1  0
 87 88  1  0
 87 86  1  0
 89 92  1  1
 89 90  1  0
 91 89  1  0
M  ISO  4  12 100  20 100  51 101  52 101
M  END
>  <TORSDO>  (80) 
F 21

>  <SCORE>  (80) 
-13.782

>  <name>  (80) 
79

>  <ligand_id>  (80) 
79

>  <original_smiles>  (80) 
[H]c1c([H])c(C(=O)C([H])([H])C([H])([H])N([H])C(=O)N2C([H])([H])C([H])([H])C([H])([H])C([H])(n3nc(-c4c([H])c([H])c(Oc5c([H])c([H])c(F)c([H])c5F)c([H])c4[H])c(C(=O)N([H])[H])c3N([H])[H])C2([H])[H])c(C([H])([H])[H])c(C([H])([H])C([H])([H])Oc2c([H])c([H])c3c(c2[H])C([H])([H])N(C(=O)C([H])(N([H])C(=O)C([H])(N([H])C([H])([H])[H])C([H])([H])[H])C(C([H])([H])[H])(C([H])([H])[H])C([H])([H])[H])C([H])(C(=O)N([H])C2([H])c4c([H])c([H])c([H])c([H])c4C([H])([H])C([H])([H])C2([H])[H])C3([H])[H])c1[H]

>  <smiles>  (80) 
[H]c1c([H])c(C(=O)C([H])([H])C([H])([H])N([H])C(=O)N2C([H])([H])C([H])([H])C([H])([H])C([H])(n3nc(-c4c([H])c([H])c(Oc5c([H])c([H])c(F)c([H])c5F)c([H])c4[H])c(C(=O)N([H])[H])c3N([H])[H])C2([H])[H])c(C([H])([H])[H])c(C([H])([H])C([H])([H])Oc2c([H])c([H])c3c(c2[H])C([H])([H])N(C(=O)C([H])(N([H])C(=O)C([H])(N([H])C([H])([H])[H])C([H])([H])[H])C(C([H])([H])[H])(C([H])([H])[H])C([H])([H])[H])C([H])(C(=O)N([H])C2([H])c4c([H])c([H])c([H])c([H])c4C([H])([H])C([H])([H])C2([H])[H])C3([H])[H])c1[H]

$$$$
80:0:0
     RDKit          3D

 91 99  0  0  1  0  0  0  0  0999 V2000
  -29.1800  -22.9650   19.5610 C   0  0  0  0  0  3  0  0  0  0  0  0
  -29.1160  -24.3810   19.3900 C   0  0  0  0  0  3  0  0  0  0  0  0
  -27.7920  -23.1750   21.5120 C   0  0  0  0  0  3  0  0  0  0  0  0
  -28.5130  -22.3200   20.6340 C   0  0  0  0  0  0  0  0  0  0  0  0
  -27.7460  -24.5910   21.3640 C   0  0  0  0  0  0  0  0  0  0  0  0
  -28.3980  -25.2330   20.2730 C   0  0  0  0  0  0  0  0  0  0  0  0
  -26.9960  -25.3960   22.4130 C   0  0  0  0  0  1  0  0  0  0  0  0
  -28.4590  -20.8020   20.8600 C   0  0  0  0  0  0  0  0  0  0  0  0
  -27.5620  -20.3190   21.5600 O   0  0  0  0  0  0  0  0  0  0  0  0
  -29.5200  -19.8020   20.2810 C   0  0  0  0  0  2  0  0  0  0  0  0
  -29.2410  -18.2590   20.5680 C   0  0  0  0  0  3  0  0  0  0  0  0
  -30.3380  -17.1990   20.1530 C   0  0  0  0  0  3  0  0  0  0  0  0
  -30.7430  -14.6790   20.0160 C   0  0  0  0  0  0  0  0  0  0  0  0
  -30.4370  -12.4770   18.9250 C   0  0  0  0  0  2  0  0  0  0  0  0
  -29.4220  -12.6440   17.7740 C   0  0  0  0  0  2  0  0  0  0  0  0
  -27.9810  -12.4780   18.2920 C   0  0  0  0  0  2  0  0  0  0  0  0
  -27.7040  -13.3150   19.5700 C   0  0  0  0  0  3  0  0  0  0  0  0
  -28.8280  -13.1390   20.6150 C   0  0  0  0  0  2  0  0  0  0  0  0
  -30.1000  -13.4740   19.9600 N   0  0  0  0  0  0  0  0  0  0  0  0
  -31.8760  -14.8310   19.5530 O   0  0  0  0  0  0  0  0  0  0  0  0
  -29.9970  -15.7590   20.3920 N   0  0  0  0  0  0  0  0  0  0  0  0
  -29.0760  -15.5560   20.7490 H   0  0  0  0  0  0  0  0  0  0  0  0
  -25.3650  -13.8980   20.4600 C   0  0  0  0  0  0  0  0  0  0  0  0
  -24.3200  -13.1170   20.8720 C   0  0  0  0  0  0  0  0  0  0  0  0
  -24.7720  -11.7660   20.7670 C   0  0  0  0  0  0  0  0  0  0  0  0
  -26.3880  -13.0230   20.1300 N   0  0  0  0  0  0  0  0  0  0  0  0
  -26.0400  -11.7340   20.3750 N   0  0  0  0  0  0  0  0  0  0  0  0
  -24.0540  -10.4990   20.9600 C   0  0  0  0  0  0  0  0  0  0  0  0
  -24.5030   -9.5300   21.8840 C   0  0  0  0  0  3  0  0  0  0  0  0
  -23.7840   -8.3290   22.0660 C   0  0  0  0  0  3  0  0  0  0  0  0
  -22.6020   -8.0890   21.3240 C   0  0  0  0  0  0  0  0  0  0  0  0
  -22.1730   -9.0480   20.3910 C   0  0  0  0  0  3  0  0  0  0  0  0
  -22.8920  -10.2410   20.2070 C   0  0  0  0  0  3  0  0  0  0  0  0
  -21.8540   -6.9400   21.4170 O   0  0  0  0  0  0  0  0  0  0  0  0
  -21.7700   -6.2280   22.5860 C   0  0  0  0  0  0  0  0  0  0  0  0
  -21.2870   -6.8080   23.7790 C   0  0  0  0  0  3  0  0  0  0  0  0
  -21.1520   -6.0210   24.9410 C   0  0  0  0  0  3  0  0  0  0  0  0
  -21.4900   -4.6550   24.9090 C   0  0  0  0  0  0  0  0  0  0  0  0
  -21.9660   -4.0740   23.7210 C   0  0  0  0  0  3  0  0  0  0  0  0
  -22.1020   -4.8590   22.5610 C   0  0  0  0  0  0  0  0  0  0  0  0
  -22.5420   -4.2890   21.4130 F   0  0  0  0  0  0  0  0  0  0  0  0
  -21.3530   -3.8970   26.0220 F   0  0  0  0  0  0  0  0  0  0  0  0
  -22.9460  -13.5890   21.2490 C   0  0  0  0  0  0  0  0  0  0  0  0
  -22.2720  -12.8670   22.1380 N   0  0  0  0  0  0  0  0  0  0  0  0
  -22.4790  -14.6310   20.7910 O   0  0  0  0  0  0  0  0  0  0  0  0
  -22.6630  -12.0230   22.5290 H   0  0  0  0  0  0  0  0  0  0  0  0
  -21.3540  -13.1640   22.4350 H   0  0  0  0  0  0  0  0  0  0  0  0
  -25.5240  -15.2750   20.3150 N   0  0  0  0  0  0  0  0  0  0  0  0
  -24.7670  -15.9260   20.4930 H   0  0  0  0  0  0  0  0  0  0  0  0
  -26.3450  -15.7210   19.9280 H   0  0  0  0  0  0  0  0  0  0  0  0
  -28.4390  -26.6290   20.0860 O   0  0  0  0  0  0  0  0  0  0  0  0
  -24.6110  -31.8830   23.1580 C   0  0  0  0  0  0  0  0  0  0  0  0
  -27.2910  -27.4210   20.0650 C   0  0  0  0  0  0  0  0  0  0  0  0
  -23.4320  -30.4940   21.4890 C   0  0  0  0  0  3  0  0  0  0  0  0
  -24.9080  -28.9750   20.0560 C   0  0  0  0  0  0  0  0  0  0  0  0
  -25.9670  -30.8400   21.3390 C   0  0  0  0  0  2  0  0  0  0  0  0
  -26.0600  -29.4750   20.6750 C   0  0  0  0  0  0  0  0  0  0  0  0
  -27.2550  -28.7050   20.6750 C   0  0  0  0  0  3  0  0  0  0  0  0
  -26.1240  -26.9590   19.4210 C   0  0  0  0  0  3  0  0  0  0  0  0
  -24.9370  -27.7200   19.4230 C   0  0  0  0  0  3  0  0  0  0  0  0
  -23.6640  -29.8370   20.1020 C   0  0  0  0  0  2  0  0  0  0  0  0
  -24.6890  -31.0850   22.0550 N   0  0  0  0  0  0  0  0  0  0  0  0
  -23.5160  -32.1710   23.6610 O   0  0  0  0  0  0  0  0  0  0  0  0
  -22.7670  -29.4590   22.4260 C   0  0  0  0  0  0  0  0  0  0  0  0
  -21.4420  -29.2870   22.2910 N   0  0  0  0  0  0  0  0  0  0  0  0
  -23.4430  -28.8140   23.2330 O   0  0  0  0  0  0  0  0  0  0  0  0
  -20.9580  -29.8610   21.6140 H   0  0  0  0  0  0  0  0  0  0  0  0
  -18.0530  -28.1190   22.7750 C   0  0  0  0  0  0  0  0  0  0  0  0
  -20.6160  -28.3370   23.0360 C   0  0  0  0  0  3  0  0  0  0  0  0
  -20.6970  -26.9230   22.4140 C   0  0  0  0  0  2  0  0  0  0  0  0
  -19.5830  -26.6470   21.3980 C   0  0  0  0  0  2  0  0  0  0  0  0
  -18.2080  -26.7890   22.0550 C   0  0  0  0  0  2  0  0  0  0  0  0
  -19.1850  -28.8530   23.2210 C   0  0  0  0  0  0  0  0  0  0  0  0
  -18.9870  -30.0990   23.8540 C   0  0  0  0  0  3  0  0  0  0  0  0
  -17.6900  -30.6120   24.0450 C   0  0  0  0  0  3  0  0  0  0  0  0
  -16.5730  -29.8750   23.6150 C   0  0  0  0  0  3  0  0  0  0  0  0
  -16.7560  -28.6300   22.9860 C   0  0  0  0  0  3  0  0  0  0  0  0
  -25.8850  -32.4990   23.8160 C   0  0  0  0  0  3  0  0  0  0  0  0
  -26.3730  -31.7180   25.0990 C   0  0  1  0  0  0  0  0  0  0  0  0
  -25.2560  -31.4780   26.1400 C   0  0  0  0  0  1  0  0  0  0  0  0
  -26.9620  -30.3420   24.7120 C   0  0  0  0  0  1  0  0  0  0  0  0
  -27.5120  -32.5070   25.7900 C   0  0  0  0  0  1  0  0  0  0  0  0
  -25.5770  -33.8970   24.1480 N   0  0  0  0  0  0  0  0  0  0  0  0
  -25.9050  -34.9490   23.3860 C   0  0  0  0  0  0  0  0  0  0  0  0
  -26.5700  -34.8450   22.3520 O   0  0  0  0  0  0  0  0  0  0  0  0
  -24.9860  -34.0520   24.9510 H   0  0  0  0  0  0  0  0  0  0  0  0
  -24.1590  -36.7290   23.0520 C   0  0  0  0  0  1  0  0  0  0  0  0
  -25.4160  -36.3370   23.8440 C   0  0  0  0  0  3  0  0  0  0  0  0
  -27.5570  -37.2410   24.6360 C   0  0  0  0  0  1  0  0  0  0  0  0
  -26.4400  -37.3950   23.7070 N   0  0  0  0  0  0  0  0  0  0  0  0
  -26.0310  -38.3140   23.8520 H   0  0  0  0  0  0  0  0  0  0  0  0
  1  4  1  0
  2  1  2  0
  2  6  1  0
  4  8  1  0
  4  3  2  0
  5  3  1  0
  5  7  1  0
  6  5  2  0
  8  9  2  0
 10 11  1  0
 10  8  1  0
 12 21  1  0
 12 11  2  0
 13 21  1  0
 14 19  1  0
 15 16  1  0
 15 14  1  0
 17 16  1  0
 17 26  1  0
 17 18  1  0
 19 13  1  0
 19 18  1  0
 20 13  2  0
 21 22  1  0
 23 24  2  0
 24 43  1  0
 25 24  1  0
 25 28  1  0
 26 27  1  0
 26 23  1  0
 27 25  2  0
 28 29  1  0
 29 30  2  0
 31 34  1  0
 31 30  1  0
 32 31  2  0
 33 32  1  0
 33 28  2  0
 34 35  1  0
 35 36  1  0
 36 37  2  0
 38 37  1  0
 38 42  1  0
 39 38  2  0
 40 35  2  0
 40 39  1  0
 41 40  1  0
 43 44  1  0
 44 47  1  0
 44 46  1  0
 45 43  2  0
 48 23  1  0
 48 49  1  0
 50 48  1  0
 51  6  1  0
 52 63  2  0
 53 51  1  0
 53 58  1  0
 54 62  1  0
 54 64  1  0
 55 61  1  0
 55 57  1  0
 56 62  1  0
 57 56  1  0
 58 57  2  0
 59 60  1  0
 59 53  2  0
 60 55  2  0
 61 54  1  0
 62 52  1  0
 64 66  2  0
 65 64  1  0
 67 65  1  0
 68 77  2  0
 68 73  1  0
 69 65  1  0
 69 73  1  0
 70 69  1  0
 71 72  1  0
 71 70  1  0
 72 68  1  0
 73 74  2  0
 74 75  1  0
 76 75  2  0
 77 76  1  0
 78 52  1  0
 78 83  1  0
 78 79  1  0
 79 82  1  1
 79 80  1  0
 81 79  1  0
 83 86  1  0
 84 88  1  0
 84 83  1  0
 85 84  2  0
 88 87  1  0
 90 88  1  0
 90 91  1  0
 90 89  1  0
M  ISO  4   6 101  13 100  21 100  51 101
M  END
>  <TORSDO>  (81) 
F 20

>  <SCORE>  (81) 
-12.674

>  <name>  (81) 
80

>  <ligand_id>  (81) 
80

>  <original_smiles>  (81) 
[H]c1c([H])c([H])c2c(c1[H])C([H])([H])C([H])([H])C([H])([H])C2([H])N([H])C(=O)C1([H])N(C(=O)C([H])(N([H])C(=O)C([H])(N([H])C([H])([H])[H])C([H])([H])[H])C(C([H])([H])[H])(C([H])([H])[H])C([H])([H])[H])C([H])([H])c2c([H])c(Oc3c([H])c([H])c(C(=O)C([H])([H])C([H])([H])C([H])([H])N([H])C(=O)N4C([H])([H])C([H])([H])C([H])([H])C([H])(n5nc(-c6c([H])c([H])c(Oc7c([H])c([H])c(F)c([H])c7F)c([H])c6[H])c(C(=O)N([H])[H])c5N([H])[H])C4([H])[H])c([H])c3C([H])([H])[H])c([H])c([H])c2C1([H])[H]

>  <smiles>  (81) 
[H]c1c([H])c([H])c2c(c1[H])C([H])([H])C([H])([H])C([H])([H])C2([H])N([H])C(=O)C1([H])N(C(=O)C([H])(N([H])C(=O)C([H])(N([H])C([H])([H])[H])C([H])([H])[H])C(C([H])([H])[H])(C([H])([H])[H])C([H])([H])[H])C([H])([H])c2c([H])c(Oc3c([H])c([H])c(C(=O)C([H])([H])C([H])([H])C([H])([H])N([H])C(=O)N4C([H])([H])C([H])([H])C([H])([H])C([H])(n5nc(-c6c([H])c([H])c(Oc7c([H])c([H])c(F)c([H])c7F)c([H])c6[H])c(C(=O)N([H])[H])c5N([H])[H])C4([H])[H])c([H])c3C([H])([H])[H])c([H])c([H])c2C1([H])[H]

$$$$
81:0:0
     RDKit          3D

 92100  0  0  1  0  0  0  0  0999 V2000
  -28.1440  -21.4220   20.6980 C   0  0  0  0  0  3  0  0  0  0  0  0
  -30.3800  -22.2410   20.3750 C   0  0  0  0  0  3  0  0  0  0  0  0
  -27.6950  -22.7720   20.8270 C   0  0  0  0  0  3  0  0  0  0  0  0
  -29.9350  -23.5870   20.5080 C   0  0  0  0  0  3  0  0  0  0  0  0
  -29.5130  -21.1170   20.4820 C   0  0  0  0  0  0  0  0  0  0  0  0
  -28.5760  -23.8890   20.7540 C   0  0  0  0  0  0  0  0  0  0  0  0
  -30.1160  -19.7230   20.3860 C   0  0  0  0  0  3  0  0  0  0  0  0
  -29.6280  -18.4460   20.5670 C   0  0  0  0  0  3  0  0  0  0  0  0
  -30.6510  -14.6600   20.4130 C   0  0  0  0  0  0  0  0  0  0  0  0
  -30.3660  -12.4280   19.3750 C   0  0  0  0  0  2  0  0  0  0  0  0
  -29.4390  -12.5440   18.1460 C   0  0  0  0  0  2  0  0  0  0  0  0
  -27.9660  -12.3940   18.5720 C   0  0  0  0  0  2  0  0  0  0  0  0
  -27.6000  -13.2770   19.7960 C   0  0  0  0  0  3  0  0  0  0  0  0
  -28.6540  -13.1710   20.9230 C   0  0  0  0  0  2  0  0  0  0  0  0
  -29.9620  -13.4770   20.3340 N   0  0  0  0  0  0  0  0  0  0  0  0
  -31.8420  -14.7180   20.0760 O   0  0  0  0  0  0  0  0  0  0  0  0
  -30.4120  -17.2210   20.4210 C   0  0  0  0  0  0  0  0  0  0  0  0
  -29.9160  -15.9350   20.6200 N   0  0  0  0  0  0  0  0  0  0  0  0
  -31.6960  -17.3900   20.0440 N   0  0  0  0  0  4  0  0  0  0  0  0
  -28.9450  -15.9260   20.8740 H   0  0  0  0  0  0  0  0  0  0  0  0
  -32.0820  -18.3000   19.8490 H   0  0  0  0  0  0  0  0  0  0  0  0
  -32.2830  -16.5690   19.9230 H   0  0  0  0  0  0  0  0  0  0  0  0
  -25.2100  -13.8760   20.5110 C   0  0  0  0  0  0  0  0  0  0  0  0
  -24.1440  -13.1050   20.8820 C   0  0  0  0  0  0  0  0  0  0  0  0
  -24.6050  -11.7520   20.8550 C   0  0  0  0  0  0  0  0  0  0  0  0
  -26.2530  -12.9950   20.2800 N   0  0  0  0  0  0  0  0  0  0  0  0
  -25.8960  -11.7130   20.5510 N   0  0  0  0  0  0  0  0  0  0  0  0
  -23.8770  -10.4920   21.0420 C   0  0  0  0  0  0  0  0  0  0  0  0
  -24.2960   -9.5290   21.9860 C   0  0  0  0  0  3  0  0  0  0  0  0
  -23.5670   -8.3310   22.1580 C   0  0  0  0  0  3  0  0  0  0  0  0
  -22.4060   -8.0910   21.3860 C   0  0  0  0  0  0  0  0  0  0  0  0
  -22.0070   -9.0410   20.4300 C   0  0  0  0  0  3  0  0  0  0  0  0
  -22.7350  -10.2300   20.2560 C   0  0  0  0  0  3  0  0  0  0  0  0
  -21.6500   -6.9460   21.4700 O   0  0  0  0  0  0  0  0  0  0  0  0
  -21.5770   -6.2150   22.6280 C   0  0  0  0  0  0  0  0  0  0  0  0
  -21.1140   -6.7780   23.8370 C   0  0  0  0  0  3  0  0  0  0  0  0
  -20.9880   -5.9730   24.9870 C   0  0  0  0  0  3  0  0  0  0  0  0
  -21.3150   -4.6040   24.9270 C   0  0  0  0  0  0  0  0  0  0  0  0
  -21.7710   -4.0410   23.7230 C   0  0  0  0  0  3  0  0  0  0  0  0
  -21.8980   -4.8440   22.5760 C   0  0  0  0  0  0  0  0  0  0  0  0
  -22.3180   -4.2900   21.4120 F   0  0  0  0  0  0  0  0  0  0  0  0
  -21.1870   -3.8290   26.0290 F   0  0  0  0  0  0  0  0  0  0  0  0
  -22.7450  -13.5830   21.1420 C   0  0  0  0  0  0  0  0  0  0  0  0
  -22.0090  -12.8890   22.0020 N   0  0  0  0  0  0  0  0  0  0  0  0
  -22.3130  -14.6100   20.6190 O   0  0  0  0  0  0  0  0  0  0  0  0
  -22.3720  -12.0580   22.4480 H   0  0  0  0  0  0  0  0  0  0  0  0
  -21.0700  -13.1920   22.2190 H   0  0  0  0  0  0  0  0  0  0  0  0
  -25.3740  -15.2450   20.3250 N   0  0  0  0  0  0  0  0  0  0  0  0
  -24.5820  -15.8780   20.3870 H   0  0  0  0  0  0  0  0  0  0  0  0
  -26.1720  -15.6620   19.8620 H   0  0  0  0  0  0  0  0  0  0  0  0
  -28.0870  -25.3240   21.1550 C   0  0  0  0  0  2  0  0  0  0  0  0
  -28.3450  -26.5010   20.3100 O   0  0  0  0  0  0  0  0  0  0  0  0
  -24.6150  -31.9130   23.2570 C   0  0  0  0  0  0  0  0  0  0  0  0
  -27.2630  -27.3780   20.2440 C   0  0  0  0  0  0  0  0  0  0  0  0
  -23.4260  -30.4970   21.6190 C   0  0  0  0  0  3  0  0  0  0  0  0
  -24.8930  -28.9550   20.2030 C   0  0  0  0  0  0  0  0  0  0  0  0
  -25.9620  -30.8350   21.4500 C   0  0  0  0  0  2  0  0  0  0  0  0
  -26.0540  -29.4580   20.8060 C   0  0  0  0  0  0  0  0  0  0  0  0
  -27.2470  -28.6820   20.8180 C   0  0  0  0  0  3  0  0  0  0  0  0
  -26.0900  -26.9200   19.6110 C   0  0  0  0  0  3  0  0  0  0  0  0
  -24.9120  -27.6910   19.5920 C   0  0  0  0  0  3  0  0  0  0  0  0
  -23.6500  -29.8180   20.2430 C   0  0  0  0  0  2  0  0  0  0  0  0
  -24.6870  -31.0930   22.1670 N   0  0  0  0  0  0  0  0  0  0  0  0
  -23.5220  -32.2100   23.7600 O   0  0  0  0  0  0  0  0  0  0  0  0
  -22.7640  -29.4810   22.5810 C   0  0  0  0  0  0  0  0  0  0  0  0
  -21.4380  -29.3030   22.4510 N   0  0  0  0  0  0  0  0  0  0  0  0
  -23.4420  -28.8570   23.4030 O   0  0  0  0  0  0  0  0  0  0  0  0
  -20.9520  -29.8620   21.7630 H   0  0  0  0  0  0  0  0  0  0  0  0
  -18.0570  -28.1140   22.9460 C   0  0  0  0  0  0  0  0  0  0  0  0
  -20.6150  -28.3650   23.2180 C   0  0  0  0  0  3  0  0  0  0  0  0
  -20.7130  -26.9350   22.6390 C   0  0  0  0  0  2  0  0  0  0  0  0
  -19.6100  -26.6180   21.6230 C   0  0  0  0  0  2  0  0  0  0  0  0
  -18.2290  -26.7670   22.2660 C   0  0  0  0  0  2  0  0  0  0  0  0
  -19.1780  -28.8720   23.3780 C   0  0  0  0  0  0  0  0  0  0  0  0
  -18.9640  -30.1340   23.9730 C   0  0  0  0  0  3  0  0  0  0  0  0
  -17.6610  -30.6400   24.1370 C   0  0  0  0  0  3  0  0  0  0  0  0
  -16.5540  -29.8800   23.7220 C   0  0  0  0  0  3  0  0  0  0  0  0
  -16.7520  -28.6190   23.1300 C   0  0  0  0  0  3  0  0  0  0  0  0
  -25.8930  -32.5420   23.8930 C   0  0  0  0  0  3  0  0  0  0  0  0
  -25.5820  -33.9410   24.2110 N   0  0  0  0  0  0  0  0  0  0  0  0
  -25.9160  -34.9880   23.4440 C   0  0  0  0  0  0  0  0  0  0  0  0
  -26.5910  -34.8750   22.4170 O   0  0  0  0  0  0  0  0  0  0  0  0
  -24.9860  -34.1030   25.0080 H   0  0  0  0  0  0  0  0  0  0  0  0
  -24.1890  -36.7740   23.0690 C   0  0  0  0  0  1  0  0  0  0  0  0
  -25.4270  -36.3790   23.8890 C   0  0  0  0  0  3  0  0  0  0  0  0
  -27.5570  -37.2720   24.7200 C   0  0  0  0  0  1  0  0  0  0  0  0
  -26.4590  -37.4310   23.7700 N   0  0  0  0  0  0  0  0  0  0  0  0
  -26.0520  -38.3520   23.9080 H   0  0  0  0  0  0  0  0  0  0  0  0
  -26.3920  -31.7780   25.1820 C   0  0  1  0  0  0  0  0  0  0  0  0
  -25.2840  -31.5500   26.2360 C   0  0  0  0  0  1  0  0  0  0  0  0
  -26.9800  -30.3990   24.8080 C   0  0  0  0  0  1  0  0  0  0  0  0
  -27.5350  -32.5760   25.8520 C   0  0  0  0  0  1  0  0  0  0  0  0
  1  3  1  0
  2  5  1  0
  2  4  2  0
  4  6  1  0
  5  1  2  0
  6  3  2  0
  6 51  1  0
  7  5  1  0
  7  8  2  0
  9 18  1  0
 10 15  1  0
 11 12  1  0
 11 10  1  0
 13 12  1  0
 13 26  1  0
 13 14  1  0
 15  9  1  0
 15 14  1  0
 16  9  2  0
 17  8  1  0
 17 18  1  0
 18 20  1  0
 19 17  2  0
 21 19  1  0
 22 19  1  0
 23 24  2  0
 24 43  1  0
 25 24  1  0
 25 28  1  0
 26 23  1  0
 26 27  1  0
 27 25  2  0
 28 29  1  0
 29 30  2  0
 31 34  1  0
 31 30  1  0
 32 31  2  0
 33 32  1  0
 33 28  2  0
 34 35  1  0
 35 36  1  0
 36 37  2  0
 38 37  1  0
 38 42  1  0
 39 38  2  0
 40 35  2  0
 40 39  1  0
 41 40  1  0
 43 44  1  0
 44 47  1  0
 44 46  1  0
 45 43  2  0
 48 49  1  0
 48 23  1  0
 50 48  1  0
 52 51  1  0
 53 64  2  0
 54 52  1  0
 54 59  1  0
 55 63  1  0
 55 65  1  0
 56 62  1  0
 56 58  1  0
 57 63  1  0
 58 59  2  0
 58 57  1  0
 60 54  2  0
 61 60  1  0
 61 56  2  0
 62 55  1  0
 63 53  1  0
 65 67  2  0
 66 65  1  0
 68 66  1  0
 69 78  2  0
 69 74  1  0
 70 66  1  0
 70 74  1  0
 71 70  1  0
 72 73  1  0
 72 71  1  0
 73 69  1  0
 74 75  2  0
 75 76  1  0
 77 76  2  0
 78 77  1  0
 79 53  1  0
 79 80  1  0
 79 89  1  0
 80 83  1  0
 81 85  1  0
 81 80  1  0
 82 81  2  0
 85 84  1  0
 87 85  1  0
 87 88  1  0
 87 86  1  0
 89 92  1  1
 89 90  1  0
 91 89  1  0
M  ISO  4   9 100  18 100  51 101  52 101
M  END
>  <TORSDO>  (82) 
F 18

>  <SCORE>  (82) 
-14.690

>  <name>  (82) 
81

>  <ligand_id>  (82) 
81

>  <original_smiles>  (82) 
[H]C(=C([H])c1c([H])c([H])c(C([H])([H])Oc2c([H])c([H])c3c(c2[H])C([H])([H])N(C(=O)C([H])(N([H])C(=O)C([H])(N([H])C([H])([H])[H])C([H])([H])[H])C(C([H])([H])[H])(C([H])([H])[H])C([H])([H])[H])C([H])(C(=O)N([H])C2([H])c4c([H])c([H])c([H])c([H])c4C([H])([H])C([H])([H])C2([H])[H])C3([H])[H])c([H])c1[H])C(N([H])C(=O)N1C([H])([H])C([H])([H])C([H])([H])C([H])(n2nc(-c3c([H])c([H])c(Oc4c([H])c([H])c(F)c([H])c4F)c([H])c3[H])c(C(=O)N([H])[H])c2N([H])[H])C1([H])[H])=[N+]([H])[H]

>  <smiles>  (82) 
[H]C(=C([H])c1c([H])c([H])c(C([H])([H])Oc2c([H])c([H])c3c(c2[H])C([H])([H])N(C(=O)C([H])(N([H])C(=O)C([H])(N([H])C([H])([H])[H])C([H])([H])[H])C(C([H])([H])[H])(C([H])([H])[H])C([H])([H])[H])C([H])(C(=O)N([H])C2([H])c4c([H])c([H])c([H])c([H])c4C([H])([H])C([H])([H])C2([H])[H])C3([H])[H])c([H])c1[H])C(N([H])C(=O)N1C([H])([H])C([H])([H])C([H])([H])C([H])(n2nc(-c3c([H])c([H])c(Oc4c([H])c([H])c(F)c([H])c4F)c([H])c3[H])c(C(=O)N([H])[H])c2N([H])[H])C1([H])[H])=[N+]([H])[H]

$$$$
82:0:0
     RDKit          3D

 94103  0  0  1  0  0  0  0  0999 V2000
  -29.0640  -22.1530   18.3780 C   0  0  0  0  0  3  0  0  0  0  0  0
  -30.1300  -22.6370   20.4970 C   0  0  0  0  0  3  0  0  0  0  0  0
  -28.6600  -23.5000   18.2690 C   0  0  0  0  0  3  0  0  0  0  0  0
  -29.7240  -23.9910   20.3890 C   0  0  0  0  0  3  0  0  0  0  0  0
  -29.8310  -21.6980   19.4770 C   0  0  0  0  0  0  0  0  0  0  0  0
  -29.0050  -24.4440   19.2600 C   0  0  0  0  0  0  0  0  0  0  0  0
  -32.7220  -20.3210   20.2260 C   0  0  0  0  0  2  0  0  0  0  0  0
  -31.8680  -20.3080   18.9510 C   0  0  0  0  0  2  0  0  0  0  0  0
  -31.8280  -19.7990   21.3600 C   0  0  0  0  0  2  0  0  0  0  0  0
  -30.4050  -20.2600   19.4150 C   0  0  0  0  0  3  0  0  0  0  0  0
  -30.4820  -19.3950   20.7130 C   0  0  0  0  0  3  0  0  0  0  0  0
  -30.4720  -17.9320   20.3750 N   0  0  0  0  0  4  0  0  0  0  0  0
  -31.1720  -17.7530   19.6730 H   0  0  0  0  0  0  0  0  0  0  0  0
  -29.5750  -17.7410   19.9580 H   0  0  0  0  0  0  0  0  0  0  0  0
  -30.6890  -16.9700   21.4980 C   0  0  0  0  0  2  0  0  0  0  0  0
  -29.9790  -15.5890   21.3490 C   0  0  0  0  0  2  0  0  0  0  0  0
  -30.6620  -14.4970   20.4870 C   0  0  0  0  0  0  0  0  0  0  0  0
  -30.3710  -12.3940   19.2010 C   0  0  0  0  0  2  0  0  0  0  0  0
  -29.4100  -12.6440   18.0200 C   0  0  0  0  0  2  0  0  0  0  0  0
  -27.9390  -12.4870   18.4590 C   0  0  0  0  0  2  0  0  0  0  0  0
  -27.6190  -13.2760   19.7560 C   0  0  0  0  0  3  0  0  0  0  0  0
  -28.6830  -12.9910   20.8390 C   0  0  0  0  0  2  0  0  0  0  0  0
  -30.0040  -13.3220   20.2800 N   0  0  0  0  0  0  0  0  0  0  0  0
  -31.7450  -14.7470   19.9460 O   0  0  0  0  0  0  0  0  0  0  0  0
  -25.2190  -13.8780   20.4700 C   0  0  0  0  0  0  0  0  0  0  0  0
  -24.1540  -13.1020   20.8420 C   0  0  0  0  0  0  0  0  0  0  0  0
  -24.6190  -11.7520   20.8080 C   0  0  0  0  0  0  0  0  0  0  0  0
  -26.2670  -13.0000   20.2370 N   0  0  0  0  0  0  0  0  0  0  0  0
  -25.9090  -11.7160   20.4960 N   0  0  0  0  0  0  0  0  0  0  0  0
  -23.8980  -10.4870   20.9980 C   0  0  0  0  0  0  0  0  0  0  0  0
  -24.3310   -9.5250   21.9380 C   0  0  0  0  0  3  0  0  0  0  0  0
  -23.6110   -8.3240   22.1150 C   0  0  0  0  0  3  0  0  0  0  0  0
  -22.4440   -8.0770   21.3550 C   0  0  0  0  0  0  0  0  0  0  0  0
  -22.0300   -9.0280   20.4050 C   0  0  0  0  0  3  0  0  0  0  0  0
  -22.7510  -10.2210   20.2260 C   0  0  0  0  0  3  0  0  0  0  0  0
  -21.6960   -6.9280   21.4410 O   0  0  0  0  0  0  0  0  0  0  0  0
  -21.6370   -6.1920   22.5990 C   0  0  0  0  0  0  0  0  0  0  0  0
  -21.1810   -6.7510   23.8130 C   0  0  0  0  0  3  0  0  0  0  0  0
  -21.0710   -5.9430   24.9620 C   0  0  0  0  0  3  0  0  0  0  0  0
  -21.4050   -4.5760   24.8970 C   0  0  0  0  0  0  0  0  0  0  0  0
  -21.8530   -4.0180   23.6880 C   0  0  0  0  0  3  0  0  0  0  0  0
  -21.9660   -4.8230   22.5410 C   0  0  0  0  0  0  0  0  0  0  0  0
  -22.3770   -4.2750   21.3720 F   0  0  0  0  0  0  0  0  0  0  0  0
  -21.2920   -3.7980   25.9980 F   0  0  0  0  0  0  0  0  0  0  0  0
  -22.7560  -13.5740   21.1200 C   0  0  0  0  0  0  0  0  0  0  0  0
  -22.0310  -12.8700   21.9820 N   0  0  0  0  0  0  0  0  0  0  0  0
  -22.3130  -14.6020   20.6070 O   0  0  0  0  0  0  0  0  0  0  0  0
  -22.4020  -12.0400   22.4200 H   0  0  0  0  0  0  0  0  0  0  0  0
  -21.0930  -13.1670   22.2100 H   0  0  0  0  0  0  0  0  0  0  0  0
  -25.3790  -15.2480   20.2920 N   0  0  0  0  0  0  0  0  0  0  0  0
  -24.6080  -15.9000   20.3950 H   0  0  0  0  0  0  0  0  0  0  0  0
  -26.2240  -15.6890   19.9520 H   0  0  0  0  0  0  0  0  0  0  0  0
  -28.7250  -25.9330   19.0100 C   0  0  0  0  0  2  0  0  0  0  0  0
  -28.3820  -26.7130   20.1650 O   0  0  0  0  0  0  0  0  0  0  0  0
  -24.5660  -31.8850   23.2580 C   0  0  0  0  0  0  0  0  0  0  0  0
  -27.2010  -27.4330   20.1530 C   0  0  0  0  0  0  0  0  0  0  0  0
  -23.3530  -30.4790   21.6240 C   0  0  0  0  0  3  0  0  0  0  0  0
  -24.8000  -28.9390   20.1930 C   0  0  0  0  0  0  0  0  0  0  0  0
  -25.8800  -30.8270   21.4260 C   0  0  0  0  0  2  0  0  0  0  0  0
  -25.9590  -29.4560   20.7810 C   0  0  0  0  0  0  0  0  0  0  0  0
  -27.1580  -28.7060   20.7680 C   0  0  0  0  0  3  0  0  0  0  0  0
  -26.0150  -26.9190   19.5810 C   0  0  0  0  0  3  0  0  0  0  0  0
  -24.8220  -27.6660   19.5960 C   0  0  0  0  0  3  0  0  0  0  0  0
  -23.5570  -29.7990   20.2450 C   0  0  0  0  0  2  0  0  0  0  0  0
  -24.6190  -31.0760   22.1620 N   0  0  0  0  0  0  0  0  0  0  0  0
  -23.4820  -32.1830   23.7780 O   0  0  0  0  0  0  0  0  0  0  0  0
  -22.7010  -29.4610   22.5860 C   0  0  0  0  0  0  0  0  0  0  0  0
  -21.3770  -29.2770   22.4560 N   0  0  0  0  0  0  0  0  0  0  0  0
  -23.3840  -28.8370   23.4030 O   0  0  0  0  0  0  0  0  0  0  0  0
  -20.8890  -29.8330   21.7670 H   0  0  0  0  0  0  0  0  0  0  0  0
  -18.0020  -28.0770   22.9360 C   0  0  0  0  0  0  0  0  0  0  0  0
  -20.5580  -28.3380   23.2220 C   0  0  0  0  0  3  0  0  0  0  0  0
  -20.6650  -26.9060   22.6460 C   0  0  0  0  0  2  0  0  0  0  0  0
  -19.5680  -26.5830   21.6260 C   0  0  0  0  0  2  0  0  0  0  0  0
  -18.1830  -26.7270   22.2620 C   0  0  0  0  0  2  0  0  0  0  0  0
  -19.1180  -28.8400   23.3710 C   0  0  0  0  0  0  0  0  0  0  0  0
  -18.8950  -30.1040   23.9590 C   0  0  0  0  0  3  0  0  0  0  0  0
  -17.5890  -30.6050   24.1180 C   0  0  0  0  0  3  0  0  0  0  0  0
  -16.4880  -29.8380   23.7010 C   0  0  0  0  0  3  0  0  0  0  0  0
  -16.6950  -28.5770   23.1140 C   0  0  0  0  0  3  0  0  0  0  0  0
  -25.8570  -32.5020   23.8840 C   0  0  0  0  0  3  0  0  0  0  0  0
  -25.5610  -33.9020   24.2110 N   0  0  0  0  0  0  0  0  0  0  0  0
  -25.8930  -34.9490   23.4450 C   0  0  0  0  0  0  0  0  0  0  0  0
  -26.5560  -34.8360   22.4090 O   0  0  0  0  0  0  0  0  0  0  0  0
  -24.9760  -34.0650   25.0190 H   0  0  0  0  0  0  0  0  0  0  0  0
  -24.1730  -36.7460   23.0870 C   0  0  0  0  0  1  0  0  0  0  0  0
  -25.4150  -36.3410   23.8960 C   0  0  0  0  0  3  0  0  0  0  0  0
  -27.5570  -37.2200   24.7150 C   0  0  0  0  0  1  0  0  0  0  0  0
  -26.4530  -37.3890   23.7740 N   0  0  0  0  0  0  0  0  0  0  0  0
  -26.0510  -38.3110   23.9170 H   0  0  0  0  0  0  0  0  0  0  0  0
  -26.3660  -31.7270   25.1620 C   0  0  1  0  0  0  0  0  0  0  0  0
  -25.2700  -31.4980   26.2270 C   0  0  0  0  0  1  0  0  0  0  0  0
  -26.9420  -30.3460   24.7710 C   0  0  0  0  0  1  0  0  0  0  0  0
  -27.5200  -32.5160   25.8260 C   0  0  0  0  0  1  0  0  0  0  0  0
  1  5  1  0
  3  1  2  0
  3  6  1  0
  4  2  1  0
  5  2  2  0
  6  4  2  0
  7  9  1  0
  8 10  1  0
  8  7  1  0
 10  5  1  0
 10 11  1  0
 11 12  1  0
 11  9  1  0
 12 15  1  0
 13 12  1  0
 14 12  1  0
 16 15  1  0
 17 16  1  0
 18 23  1  0
 19 20  1  0
 19 18  1  0
 21 20  1  0
 21 28  1  0
 21 22  1  0
 23 17  1  0
 23 22  1  0
 24 17  2  0
 25 26  2  0
 26 45  1  0
 27 26  1  0
 27 30  1  0
 28 25  1  0
 28 29  1  0
 29 27  2  0
 30 31  1  0
 31 32  2  0
 33 36  1  0
 33 32  1  0
 34 33  2  0
 35 34  1  0
 35 30  2  0
 36 37  1  0
 37 38  1  0
 38 39  2  0
 40 39  1  0
 40 44  1  0
 41 40  2  0
 42 37  2  0
 42 41  1  0
 43 42  1  0
 45 46  1  0
 46 49  1  0
 46 48  1  0
 47 45  2  0
 50 51  1  0
 50 25  1  0
 52 50  1  0
 53  6  1  0
 53 54  1  0
 55 66  2  0
 56 54  1  0
 56 61  1  0
 57 65  1  0
 57 67  1  0
 58 64  1  0
 58 60  1  0
 59 65  1  0
 60 59  1  0
 61 60  2  0
 62 63  1  0
 62 56  2  0
 63 58  2  0
 64 57  1  0
 65 55  1  0
 67 69  2  0
 68 67  1  0
 70 68  1  0
 71 80  2  0
 71 76  1  0
 72 68  1  0
 72 76  1  0
 73 72  1  0
 74 75  1  0
 74 73  1  0
 75 71  1  0
 76 77  2  0
 77 78  1  0
 79 78  2  0
 80 79  1  0
 81 55  1  0
 81 82  1  0
 81 91  1  0
 82 85  1  0
 83 87  1  0
 83 82  1  0
 84 83  2  0
 87 86  1  0
 89 87  1  0
 89 90  1  0
 89 88  1  0
 91 94  1  1
 91 92  1  0
 93 91  1  0
M  ISO  4  16 100  17 100  53 101  54 101
M  END
>  <TORSDO>  (83) 
F 21

>  <SCORE>  (83) 
-13.617

>  <name>  (83) 
82

>  <ligand_id>  (83) 
82

>  <original_smiles>  (83) 
[H]c1c([H])c([H])c2c(c1[H])C([H])([H])C([H])([H])C([H])([H])C2([H])N([H])C(=O)C1([H])N(C(=O)C([H])(N([H])C(=O)C([H])(N([H])C([H])([H])[H])C([H])([H])[H])C(C([H])([H])[H])(C([H])([H])[H])C([H])([H])[H])C([H])([H])c2c([H])c(OC([H])([H])c3c([H])c([H])c(C4([H])C([H])([H])C([H])([H])C([H])([H])C4([H])[N+]([H])([H])C([H])([H])C([H])([H])C(=O)N4C([H])([H])C([H])([H])C([H])([H])C([H])(n5nc(-c6c([H])c([H])c(Oc7c([H])c([H])c(F)c([H])c7F)c([H])c6[H])c(C(=O)N([H])[H])c5N([H])[H])C4([H])[H])c([H])c3[H])c([H])c([H])c2C1([H])[H]

>  <smiles>  (83) 
[H]c1c([H])c([H])c2c(c1[H])C([H])([H])C([H])([H])C([H])([H])C2([H])N([H])C(=O)C1([H])N(C(=O)C([H])(N([H])C(=O)C([H])(N([H])C([H])([H])[H])C([H])([H])[H])C(C([H])([H])[H])(C([H])([H])[H])C([H])([H])[H])C([H])([H])c2c([H])c(OC([H])([H])c3c([H])c([H])c(C4([H])C([H])([H])C([H])([H])C([H])([H])C4([H])[N+]([H])([H])C([H])([H])C([H])([H])C(=O)N4C([H])([H])C([H])([H])C([H])([H])C([H])(n5nc(-c6c([H])c([H])c(Oc7c([H])c([H])c(F)c([H])c7F)c([H])c6[H])c(C(=O)N([H])[H])c5N([H])[H])C4([H])[H])c([H])c3[H])c([H])c([H])c2C1([H])[H]

$$$$
83:0:0
     RDKit          3D

 94103  0  0  1  0  0  0  0  0999 V2000
  -31.4690  -24.5960   17.2530 C   0  0  0  0  0  2  0  0  0  0  0  0
  -30.4930  -25.7650   17.1000 C   0  0  0  0  0  2  0  0  0  0  0  0
  -30.8440  -23.3440   17.8860 C   0  0  0  0  0  2  0  0  0  0  0  0
  -30.0850  -26.3970   18.4410 C   0  0  0  0  0  2  0  0  0  0  0  0
  -29.0760  -24.2600   19.6290 C   0  0  0  0  0  2  0  0  0  0  0  0
  -30.4390  -23.5270   19.3630 C   0  0  0  0  0  3  0  0  0  0  0  0
  -28.8560  -25.7280   19.0950 C   0  0  0  0  0  3  0  0  0  0  0  0
  -31.5460  -22.2170   21.2100 C   0  0  0  0  0  3  0  0  0  0  0  0
  -30.0390  -20.9560   19.7680 C   0  0  0  0  0  3  0  0  0  0  0  0
  -31.2450  -19.8260   21.5630 C   0  0  0  0  0  3  0  0  0  0  0  0
  -30.6340  -22.2040   20.1360 C   0  0  0  0  0  0  0  0  0  0  0  0
  -31.8520  -21.0440   21.9180 C   0  0  0  0  0  0  0  0  0  0  0  0
  -30.3570  -19.7490   20.4670 C   0  0  0  0  0  0  0  0  0  0  0  0
  -32.8650  -21.0920   23.0410 C   0  0  0  0  0  1  0  0  0  0  0  0
  -29.7110  -18.3870   20.1170 C   0  0  0  0  0  2  0  0  0  0  0  0
  -30.6140  -17.0980   20.1760 C   0  0  0  0  0  2  0  0  0  0  0  0
  -29.8250  -15.7630   20.4170 C   0  0  0  0  0  2  0  0  0  0  0  0
  -30.6140  -14.4310   20.2450 C   0  0  0  0  0  0  0  0  0  0  0  0
  -30.3070  -12.1980   19.2500 C   0  0  0  0  0  2  0  0  0  0  0  0
  -29.3540  -12.3680   18.0470 C   0  0  0  0  0  2  0  0  0  0  0  0
  -27.8880  -12.2290   18.4990 C   0  0  0  0  0  2  0  0  0  0  0  0
  -27.5580  -13.1100   19.7320 C   0  0  0  0  0  3  0  0  0  0  0  0
  -28.6360  -12.9830   20.8310 C   0  0  0  0  0  2  0  0  0  0  0  0
  -29.9550  -13.2360   20.2350 N   0  0  0  0  0  0  0  0  0  0  0  0
  -31.7940  -14.5190   19.8990 O   0  0  0  0  0  0  0  0  0  0  0  0
  -25.1770  -13.7290   20.4790 C   0  0  0  0  0  0  0  0  0  0  0  0
  -24.1100  -12.9620   20.8650 C   0  0  0  0  0  0  0  0  0  0  0  0
  -24.5650  -11.6090   20.8390 C   0  0  0  0  0  0  0  0  0  0  0  0
  -26.2150  -12.8410   20.2420 N   0  0  0  0  0  0  0  0  0  0  0  0
  -25.8540  -11.5630   20.5200 N   0  0  0  0  0  0  0  0  0  0  0  0
  -23.8380  -10.3500   21.0450 C   0  0  0  0  0  0  0  0  0  0  0  0
  -24.2890   -9.3820   21.9690 C   0  0  0  0  0  3  0  0  0  0  0  0
  -23.5630   -8.1880   22.1670 C   0  0  0  0  0  3  0  0  0  0  0  0
  -22.3710   -7.9530   21.4400 C   0  0  0  0  0  0  0  0  0  0  0  0
  -21.9380   -8.9110   20.5080 C   0  0  0  0  0  3  0  0  0  0  0  0
  -22.6650  -10.0980   20.3090 C   0  0  0  0  0  3  0  0  0  0  0  0
  -21.6150   -6.8100   21.5460 O   0  0  0  0  0  0  0  0  0  0  0  0
  -21.6100   -6.0530   22.6910 C   0  0  0  0  0  0  0  0  0  0  0  0
  -21.2520   -6.5980   23.9420 C   0  0  0  0  0  3  0  0  0  0  0  0
  -21.1950   -5.7690   25.0810 C   0  0  0  0  0  3  0  0  0  0  0  0
  -21.4840   -4.3960   24.9670 C   0  0  0  0  0  0  0  0  0  0  0  0
  -21.8340   -3.8500   23.7180 C   0  0  0  0  0  3  0  0  0  0  0  0
  -21.8950   -4.6770   22.5830 C   0  0  0  0  0  0  0  0  0  0  0  0
  -22.2120   -4.1420   21.3810 F   0  0  0  0  0  0  0  0  0  0  0  0
  -21.4210   -3.5970   26.0560 F   0  0  0  0  0  0  0  0  0  0  0  0
  -22.7150  -13.4450   21.1450 C   0  0  0  0  0  0  0  0  0  0  0  0
  -21.9980  -12.7580   22.0250 N   0  0  0  0  0  0  0  0  0  0  0  0
  -22.2740  -14.4660   20.6180 O   0  0  0  0  0  0  0  0  0  0  0  0
  -22.3730  -11.9350   22.4710 H   0  0  0  0  0  0  0  0  0  0  0  0
  -21.0620  -13.0580   22.2540 H   0  0  0  0  0  0  0  0  0  0  0  0
  -25.3450  -15.0980   20.2870 N   0  0  0  0  0  0  0  0  0  0  0  0
  -24.5790  -15.7540   20.3920 H   0  0  0  0  0  0  0  0  0  0  0  0
  -26.1980  -15.5360   19.9610 H   0  0  0  0  0  0  0  0  0  0  0  0
  -28.4440  -26.6300   20.1510 O   0  0  0  0  0  0  0  0  0  0  0  0
  -24.6090  -31.8150   23.2080 C   0  0  0  0  0  0  0  0  0  0  0  0
  -27.2530  -27.3470   20.1010 C   0  0  0  0  0  0  0  0  0  0  0  0
  -23.3900  -30.4040   21.5820 C   0  0  0  0  0  3  0  0  0  0  0  0
  -24.8390  -28.8500   20.1560 C   0  0  0  0  0  0  0  0  0  0  0  0
  -25.9180  -30.7510   21.3720 C   0  0  0  0  0  2  0  0  0  0  0  0
  -25.9990  -29.3790   20.7300 C   0  0  0  0  0  0  0  0  0  0  0  0
  -27.2020  -28.6280   20.7070 C   0  0  0  0  0  3  0  0  0  0  0  0
  -26.0650  -26.8300   19.5390 C   0  0  0  0  0  3  0  0  0  0  0  0
  -24.8660  -27.5710   19.5680 C   0  0  0  0  0  3  0  0  0  0  0  0
  -23.5880  -29.7000   20.2120 C   0  0  0  0  0  2  0  0  0  0  0  0
  -24.6590  -30.9970   22.1160 N   0  0  0  0  0  0  0  0  0  0  0  0
  -23.5260  -32.1280   23.7220 O   0  0  0  0  0  0  0  0  0  0  0  0
  -22.7280  -29.3980   22.5530 C   0  0  0  0  0  0  0  0  0  0  0  0
  -21.3970  -29.2410   22.4410 N   0  0  0  0  0  0  0  0  0  0  0  0
  -23.4070  -28.7560   23.3560 O   0  0  0  0  0  0  0  0  0  0  0  0
  -20.9090  -29.8170   21.7690 H   0  0  0  0  0  0  0  0  0  0  0  0
  -18.0070  -28.0990   22.9490 C   0  0  0  0  0  0  0  0  0  0  0  0
  -20.5720  -28.3100   23.2100 C   0  0  0  0  0  3  0  0  0  0  0  0
  -20.6470  -26.8810   22.6210 C   0  0  0  0  0  2  0  0  0  0  0  0
  -19.5330  -26.5850   21.6120 C   0  0  0  0  0  2  0  0  0  0  0  0
  -18.1560  -26.7500   22.2670 C   0  0  0  0  0  2  0  0  0  0  0  0
  -19.1420  -28.8380   23.3780 C   0  0  0  0  0  0  0  0  0  0  0  0
  -18.9530  -30.1020   23.9720 C   0  0  0  0  0  3  0  0  0  0  0  0
  -17.6590  -30.6280   24.1500 C   0  0  0  0  0  3  0  0  0  0  0  0
  -16.5390  -29.8830   23.7480 C   0  0  0  0  0  3  0  0  0  0  0  0
  -16.7120  -28.6220   23.1490 C   0  0  0  0  0  3  0  0  0  0  0  0
  -25.9050  -32.4230   23.8390 C   0  0  0  0  0  3  0  0  0  0  0  0
  -26.4210  -31.6340   25.1040 C   0  0  1  0  0  0  0  0  0  0  0  0
  -25.3280  -31.3990   26.1720 C   0  0  0  0  0  1  0  0  0  0  0  0
  -26.9920  -30.2600   24.6830 C   0  0  0  0  0  1  0  0  0  0  0  0
  -27.5840  -32.4120   25.7640 C   0  0  0  0  0  1  0  0  0  0  0  0
  -25.6120  -33.8220   24.1840 N   0  0  0  0  0  0  0  0  0  0  0  0
  -25.9450  -34.8750   23.4270 C   0  0  0  0  0  0  0  0  0  0  0  0
  -26.6000  -34.7720   22.3850 O   0  0  0  0  0  0  0  0  0  0  0  0
  -25.0380  -33.9740   25.0010 H   0  0  0  0  0  0  0  0  0  0  0  0
  -24.2130  -36.6680   23.1210 C   0  0  0  0  0  1  0  0  0  0  0  0
  -25.4720  -36.2620   23.9040 C   0  0  0  0  0  3  0  0  0  0  0  0
  -27.6270  -37.1320   24.6890 C   0  0  0  0  0  1  0  0  0  0  0  0
  -26.5030  -37.3120   23.7730 N   0  0  0  0  0  0  0  0  0  0  0  0
  -26.1050  -38.2320   23.9410 H   0  0  0  0  0  0  0  0  0  0  0  0
  1  3  1  0
  2  1  1  0
  2  4  1  0
  3  6  1  0
  4  7  1  0
  6  5  1  0
  6 11  1  0
  7  5  1  0
  7 54  1  0
  8 12  1  0
  9 11  1  0
  9 13  2  0
 10 12  2  0
 11  8  2  0
 12 14  1  0
 13 10  1  0
 15 16  1  0
 15 13  1  0
 16 17  1  0
 18 17  1  0
 19 24  1  0
 20 21  1  0
 20 19  1  0
 22 21  1  0
 22 29  1  0
 22 23  1  0
 24 18  1  0
 24 23  1  0
 25 18  2  0
 26 27  2  0
 27 46  1  0
 28 27  1  0
 28 31  1  0
 29 26  1  0
 29 30  1  0
 30 28  2  0
 31 32  1  0
 32 33  2  0
 34 37  1  0
 34 33  1  0
 35 34  2  0
 36 35  1  0
 36 31  2  0
 37 38  1  0
 38 39  1  0
 39 40  2  0
 41 40  1  0
 41 45  1  0
 42 41  2  0
 43 38  2  0
 43 42  1  0
 44 43  1  0
 46 47  1  0
 47 50  1  0
 47 49  1  0
 48 46  2  0
 51 52  1  0
 51 26  1  0
 53 51  1  0
 55 66  2  0
 56 54  1  0
 56 61  1  0
 57 65  1  0
 57 67  1  0
 58 64  1  0
 58 60  1  0
 59 65  1  0
 60 59  1  0
 61 60  2  0
 62 63  1  0
 62 56  2  0
 63 58  2  0
 64 57  1  0
 65 55  1  0
 67 69  2  0
 68 67  1  0
 70 68  1  0
 71 80  2  0
 71 76  1  0
 72 68  1  0
 72 76  1  0
 73 72  1  0
 74 75  1  0
 74 73  1  0
 75 71  1  0
 76 77  2  0
 77 78  1  0
 79 78  2  0
 80 79  1  0
 81 55  1  0
 81 86  1  0
 81 82  1  0
 82 85  1  1
 82 83  1  0
 84 82  1  0
 86 89  1  0
 87 91  1  0
 87 86  1  0
 88 87  2  0
 91 90  1  0
 93 91  1  0
 93 94  1  0
 93 92  1  0
M  ISO  4   7 101  17 100  18 100  54 101
M  END
>  <TORSDO>  (84) 
F 20

>  <SCORE>  (84) 
-13.675

>  <name>  (84) 
83

>  <ligand_id>  (84) 
83

>  <original_smiles>  (84) 
[H]c1c([H])c([H])c2c(c1[H])C([H])([H])C([H])([H])C([H])([H])C2([H])N([H])C(=O)C1([H])N(C(=O)C([H])(N([H])C(=O)C([H])(N([H])C([H])([H])[H])C([H])([H])[H])C(C([H])([H])[H])(C([H])([H])[H])C([H])([H])[H])C([H])([H])c2c([H])c(OC3([H])C([H])([H])C([H])([H])C([H])([H])C([H])([H])C([H])(c4c([H])c(C([H])([H])[H])c([H])c(C([H])([H])C([H])([H])C([H])([H])C(=O)N5C([H])([H])C([H])([H])C([H])([H])C([H])(n6nc(-c7c([H])c([H])c(Oc8c([H])c([H])c(F)c([H])c8F)c([H])c7[H])c(C(=O)N([H])[H])c6N([H])[H])C5([H])[H])c4[H])C3([H])[H])c([H])c([H])c2C1([H])[H]

>  <smiles>  (84) 
[H]c1c([H])c([H])c2c(c1[H])C([H])([H])C([H])([H])C([H])([H])C2([H])N([H])C(=O)C1([H])N(C(=O)C([H])(N([H])C(=O)C([H])(N([H])C([H])([H])[H])C([H])([H])[H])C(C([H])([H])[H])(C([H])([H])[H])C([H])([H])[H])C([H])([H])c2c([H])c(OC3([H])C([H])([H])C([H])([H])C([H])([H])C([H])([H])C([H])(c4c([H])c(C([H])([H])[H])c([H])c(C([H])([H])C([H])([H])C([H])([H])C(=O)N5C([H])([H])C([H])([H])C([H])([H])C([H])(n6nc(-c7c([H])c([H])c(Oc8c([H])c([H])c(F)c([H])c8F)c([H])c7[H])c(C(=O)N([H])[H])c6N([H])[H])C5([H])[H])c4[H])C3([H])[H])c([H])c([H])c2C1([H])[H]

$$$$
84:0:0
     RDKit          3D

 91100  0  0  1  0  0  0  0  0999 V2000
  -29.3010  -20.7430   20.6670 C   0  0  0  0  0  0  0  0  0  0  0  0
  -30.2550  -19.7770   21.3670 C   0  0  0  0  0  2  0  0  0  0  0  0
  -28.5390  -19.9280   19.6460 C   0  0  0  0  0  2  0  0  0  0  0  0
  -29.4550  -16.2450   18.9640 C   0  0  0  0  0  2  0  0  0  0  0  0
  -28.6110  -17.5110   18.8810 C   0  0  0  0  0  2  0  0  0  0  0  0
  -30.1980  -17.1160   21.2620 C   0  0  0  0  0  2  0  0  0  0  0  0
  -29.7190  -15.8640   20.4350 C   0  0  0  0  0  3  0  0  0  0  0  0
  -30.3730  -18.4870   20.4970 C   0  0  0  0  0  3  0  0  0  0  0  0
  -29.4490  -18.7420   19.2660 C   0  0  2  0  0  0  0  0  0  0  0  0
  -30.3190  -19.1640   18.0550 C   0  0  0  0  0  1  0  0  0  0  0  0
  -29.1960  -22.0020   20.9260 N   0  0  0  0  0  0  0  0  0  0  0  0
  -30.6060  -14.5740   20.4330 C   0  0  0  0  0  0  0  0  0  0  0  0
  -30.3940  -12.3600   19.3850 C   0  0  0  0  0  2  0  0  0  0  0  0
  -29.4570  -12.5200   18.1640 C   0  0  0  0  0  2  0  0  0  0  0  0
  -27.9720  -12.3980   18.5730 C   0  0  0  0  0  2  0  0  0  0  0  0
  -27.6100  -13.2390   19.8250 C   0  0  0  0  0  3  0  0  0  0  0  0
  -28.6650  -13.0450   20.9400 C   0  0  0  0  0  2  0  0  0  0  0  0
  -29.9950  -13.3560   20.3920 N   0  0  0  0  0  0  0  0  0  0  0  0
  -31.8040  -14.7100   20.1650 O   0  0  0  0  0  0  0  0  0  0  0  0
  -25.2120  -13.8610   20.5120 C   0  0  0  0  0  0  0  0  0  0  0  0
  -24.1380  -13.0910   20.8730 C   0  0  0  0  0  0  0  0  0  0  0  0
  -24.6000  -11.7410   20.8560 C   0  0  0  0  0  0  0  0  0  0  0  0
  -26.2560  -12.9750   20.2970 N   0  0  0  0  0  0  0  0  0  0  0  0
  -25.8920  -11.6960   20.5640 N   0  0  0  0  0  0  0  0  0  0  0  0
  -23.8740  -10.4790   21.0430 C   0  0  0  0  0  0  0  0  0  0  0  0
  -24.3030   -9.5150   21.9820 C   0  0  0  0  0  3  0  0  0  0  0  0
  -23.5790   -8.3160   22.1570 C   0  0  0  0  0  3  0  0  0  0  0  0
  -22.4130   -8.0740   21.3920 C   0  0  0  0  0  0  0  0  0  0  0  0
  -22.0050   -9.0280   20.4430 C   0  0  0  0  0  3  0  0  0  0  0  0
  -22.7280  -10.2170   20.2660 C   0  0  0  0  0  3  0  0  0  0  0  0
  -21.6610   -6.9280   21.4760 O   0  0  0  0  0  0  0  0  0  0  0  0
  -21.6060   -6.1870   22.6300 C   0  0  0  0  0  0  0  0  0  0  0  0
  -21.1710   -6.7420   23.8530 C   0  0  0  0  0  3  0  0  0  0  0  0
  -21.0640   -5.9270   24.9980 C   0  0  0  0  0  3  0  0  0  0  0  0
  -21.3830   -4.5570   24.9190 C   0  0  0  0  0  0  0  0  0  0  0  0
  -21.8140   -4.0030   23.7020 C   0  0  0  0  0  3  0  0  0  0  0  0
  -21.9220   -4.8150   22.5590 C   0  0  0  0  0  0  0  0  0  0  0  0
  -22.3150   -4.2700   21.3830 F   0  0  0  0  0  0  0  0  0  0  0  0
  -21.2740   -3.7720   26.0170 F   0  0  0  0  0  0  0  0  0  0  0  0
  -22.7370  -13.5710   21.1270 C   0  0  0  0  0  0  0  0  0  0  0  0
  -21.9990  -12.8760   21.9850 N   0  0  0  0  0  0  0  0  0  0  0  0
  -22.3050  -14.5960   20.6000 O   0  0  0  0  0  0  0  0  0  0  0  0
  -22.3600  -12.0450   22.4290 H   0  0  0  0  0  0  0  0  0  0  0  0
  -21.0600  -13.1800   22.2000 H   0  0  0  0  0  0  0  0  0  0  0  0
  -25.3800  -15.2310   20.3350 N   0  0  0  0  0  0  0  0  0  0  0  0
  -24.6140  -15.8890   20.4360 H   0  0  0  0  0  0  0  0  0  0  0  0
  -26.2400  -15.6700   20.0330 H   0  0  0  0  0  0  0  0  0  0  0  0
  -28.1630  -22.8350   20.2860 C   0  0  0  0  0  2  0  0  0  0  0  0
  -28.6540  -24.2520   19.8620 C   0  0  0  0  0  2  0  0  0  0  0  0
  -28.2770  -25.4000   20.8310 C   0  0  0  0  0  2  0  0  0  0  0  0
  -28.4000  -26.7130   20.2390 O   0  0  0  0  0  0  0  0  0  0  0  0
  -24.5820  -31.9190   23.2600 C   0  0  0  0  0  0  0  0  0  0  0  0
  -27.2410  -27.4610   20.2110 C   0  0  0  0  0  0  0  0  0  0  0  0
  -23.3840  -30.5060   21.6220 C   0  0  0  0  0  3  0  0  0  0  0  0
  -24.8460  -28.9660   20.2030 C   0  0  0  0  0  0  0  0  0  0  0  0
  -25.9120  -30.8650   21.4340 C   0  0  0  0  0  2  0  0  0  0  0  0
  -26.0020  -29.4960   20.7900 C   0  0  0  0  0  0  0  0  0  0  0  0
  -27.2070  -28.7540   20.7830 C   0  0  0  0  0  3  0  0  0  0  0  0
  -26.0700  -26.9470   19.6120 C   0  0  0  0  0  3  0  0  0  0  0  0
  -24.8750  -27.6920   19.6070 C   0  0  0  0  0  3  0  0  0  0  0  0
  -23.5970  -29.8200   20.2460 C   0  0  0  0  0  2  0  0  0  0  0  0
  -24.6450  -31.1080   22.1660 N   0  0  0  0  0  0  0  0  0  0  0  0
  -23.4950  -32.2150   23.7720 O   0  0  0  0  0  0  0  0  0  0  0  0
  -22.7280  -29.4880   22.5840 C   0  0  0  0  0  0  0  0  0  0  0  0
  -21.4020  -29.3090   22.4530 N   0  0  0  0  0  0  0  0  0  0  0  0
  -23.4080  -28.8610   23.4000 O   0  0  0  0  0  0  0  0  0  0  0  0
  -20.9150  -29.8620   21.7610 H   0  0  0  0  0  0  0  0  0  0  0  0
  -18.0250  -28.1310   22.9530 C   0  0  0  0  0  0  0  0  0  0  0  0
  -20.5830  -28.3740   23.2230 C   0  0  0  0  0  3  0  0  0  0  0  0
  -20.6760  -26.9440   22.6410 C   0  0  0  0  0  2  0  0  0  0  0  0
  -19.5730  -26.6410   21.6230 C   0  0  0  0  0  2  0  0  0  0  0  0
  -18.1960  -26.7800   22.2780 C   0  0  0  0  0  2  0  0  0  0  0  0
  -19.1480  -28.8860   23.3840 C   0  0  0  0  0  0  0  0  0  0  0  0
  -18.9370  -30.1490   23.9790 C   0  0  0  0  0  3  0  0  0  0  0  0
  -17.6350  -30.6570   24.1460 C   0  0  0  0  0  3  0  0  0  0  0  0
  -16.5270  -29.8980   23.7330 C   0  0  0  0  0  3  0  0  0  0  0  0
  -16.7220  -28.6360   23.1430 C   0  0  0  0  0  3  0  0  0  0  0  0
  -25.8670  -32.5400   23.8940 C   0  0  0  0  0  3  0  0  0  0  0  0
  -26.3700  -31.7740   25.1790 C   0  0  1  0  0  0  0  0  0  0  0  0
  -25.2660  -31.5470   26.2370 C   0  0  0  0  0  1  0  0  0  0  0  0
  -26.9510  -30.3920   24.8000 C   0  0  0  0  0  1  0  0  0  0  0  0
  -27.5200  -32.5650   25.8470 C   0  0  0  0  0  1  0  0  0  0  0  0
  -25.5660  -33.9420   24.2140 N   0  0  0  0  0  0  0  0  0  0  0  0
  -25.9090  -34.9850   23.4460 C   0  0  0  0  0  0  0  0  0  0  0  0
  -26.5850  -34.8680   22.4200 O   0  0  0  0  0  0  0  0  0  0  0  0
  -24.9660  -34.1040   25.0090 H   0  0  0  0  0  0  0  0  0  0  0  0
  -24.1940  -36.7820   23.0590 C   0  0  0  0  0  1  0  0  0  0  0  0
  -25.4240  -36.3780   23.8880 C   0  0  0  0  0  3  0  0  0  0  0  0
  -27.5530  -37.2570   24.7340 C   0  0  0  0  0  1  0  0  0  0  0  0
  -26.4640  -37.4240   23.7760 N   0  0  0  0  0  0  0  0  0  0  0  0
  -26.0610  -38.3480   23.9130 H   0  0  0  0  0  0  0  0  0  0  0  0
  1 11  2  0
  1  2  1  0
  3  1  1  0
  4  7  1  0
  5  4  1  0
  5  9  1  0
  7 12  1  0
  7  6  1  0
  8  6  1  0
  8  2  1  0
  9 10  1  6
  9  3  1  0
  9  8  1  0
 13 18  1  0
 14 15  1  0
 14 13  1  0
 16 15  1  0
 16 23  1  0
 16 17  1  0
 18 12  1  0
 18 17  1  0
 19 12  2  0
 20 21  2  0
 21 40  1  0
 22 21  1  0
 22 25  1  0
 23 20  1  0
 23 24  1  0
 24 22  2  0
 25 26  1  0
 26 27  2  0
 28 31  1  0
 28 27  1  0
 29 28  2  0
 30 29  1  0
 30 25  2  0
 31 32  1  0
 32 33  1  0
 33 34  2  0
 35 34  1  0
 35 39  1  0
 36 35  2  0
 37 32  2  0
 37 36  1  0
 38 37  1  0
 40 41  1  0
 41 44  1  0
 41 43  1  0
 42 40  2  0
 45 46  1  0
 45 20  1  0
 47 45  1  0
 48 11  1  0
 49 48  1  0
 49 50  1  0
 51 50  1  0
 52 63  2  0
 53 51  1  0
 53 58  1  0
 54 62  1  0
 54 64  1  0
 55 61  1  0
 55 57  1  0
 56 62  1  0
 57 56  1  0
 58 57  2  0
 59 53  2  0
 60 59  1  0
 60 55  2  0
 61 54  1  0
 62 52  1  0
 64 66  2  0
 65 64  1  0
 67 65  1  0
 68 77  2  0
 68 73  1  0
 69 65  1  0
 69 73  1  0
 70 69  1  0
 71 72  1  0
 71 70  1  0
 72 68  1  0
 73 74  2  0
 74 75  1  0
 76 75  2  0
 77 76  1  0
 78 52  1  0
 78 83  1  0
 78 79  1  0
 79 82  1  1
 79 80  1  0
 81 79  1  0
 83 86  1  0
 84 88  1  0
 84 83  1  0
 85 84  2  0
 88 87  1  0
 90 88  1  0
 90 91  1  0
 90 89  1  0
M  ISO  4   7 100  12 100  50 101  51 101
M  END
>  <TORSDO>  (85) 
F 19

>  <SCORE>  (85) 
-14.445

>  <name>  (85) 
84

>  <ligand_id>  (85) 
84

>  <original_smiles>  (85) 
[H]c1c([H])c([H])c2c(c1[H])C([H])([H])C([H])([H])C([H])([H])C2([H])N([H])C(=O)C1([H])N(C(=O)C([H])(N([H])C(=O)C([H])(N([H])C([H])([H])[H])C([H])([H])[H])C(C([H])([H])[H])(C([H])([H])[H])C([H])([H])[H])C([H])([H])c2c([H])c(OC([H])([H])C([H])([H])C([H])([H])N=C3C([H])([H])C4([H])C([H])([H])C([H])(C(=O)N5C([H])([H])C([H])([H])C([H])([H])C([H])(n6nc(-c7c([H])c([H])c(Oc8c([H])c([H])c(F)c([H])c8F)c([H])c7[H])c(C(=O)N([H])[H])c6N([H])[H])C5([H])[H])C([H])([H])C([H])([H])C4(C([H])([H])[H])C3([H])[H])c([H])c([H])c2C1([H])[H]

>  <smiles>  (85) 
[H]c1c([H])c([H])c2c(c1[H])C([H])([H])C([H])([H])C([H])([H])C2([H])N([H])C(=O)C1([H])N(C(=O)C([H])(N([H])C(=O)C([H])(N([H])C([H])([H])[H])C([H])([H])[H])C(C([H])([H])[H])(C([H])([H])[H])C([H])([H])[H])C([H])([H])c2c([H])c(OC([H])([H])C([H])([H])C([H])([H])N=C3C([H])([H])C4([H])C([H])([H])C([H])(C(=O)N5C([H])([H])C([H])([H])C([H])([H])C([H])(n6nc(-c7c([H])c([H])c(Oc8c([H])c([H])c(F)c([H])c8F)c([H])c7[H])c(C(=O)N([H])[H])c6N([H])[H])C5([H])[H])C([H])([H])C([H])([H])C4(C([H])([H])[H])C3([H])[H])c([H])c([H])c2C1([H])[H]

$$$$
85:0:0
     RDKit          3D

 93102  0  0  1  0  0  0  0  0999 V2000
  -29.5940  -21.2290   20.8740 C   0  0  0  0  0  3  0  0  0  0  0  0
  -30.1060  -21.6070   18.5240 C   0  0  0  0  0  3  0  0  0  0  0  0
  -29.6830  -22.6180   21.1100 C   0  0  0  0  0  3  0  0  0  0  0  0
  -30.1980  -22.9870   18.7580 C   0  0  0  0  0  3  0  0  0  0  0  0
  -29.7950  -20.7100   19.5710 C   0  0  0  0  0  0  0  0  0  0  0  0
  -29.9710  -23.5060   20.0500 C   0  0  0  0  0  0  0  0  0  0  0  0
  -31.3210  -26.6160   20.8420 C   0  0  0  0  0  2  0  0  0  0  0  0
  -30.5700  -25.5160   21.5940 C   0  0  0  0  0  2  0  0  0  0  0  0
  -31.1480  -25.7670   19.5840 C   0  0  0  0  0  2  0  0  0  0  0  0
  -29.9710  -25.0150   20.2560 C   0  0  1  0  0  0  0  0  0  0  0  0
  -28.5450  -25.4890   19.8900 C   0  0  0  0  0  2  0  0  0  0  0  0
  -28.4320  -26.8770   20.1340 O   0  0  0  0  0  0  0  0  0  0  0  0
  -24.5590  -31.9100   23.2110 C   0  0  0  0  0  0  0  0  0  0  0  0
  -27.2010  -27.4870   20.1340 C   0  0  0  0  0  0  0  0  0  0  0  0
  -23.3360  -30.4890   21.5940 C   0  0  0  0  0  3  0  0  0  0  0  0
  -24.7780  -28.9390   20.1680 C   0  0  0  0  0  0  0  0  0  0  0  0
  -25.8540  -30.8550   21.3680 C   0  0  0  0  0  2  0  0  0  0  0  0
  -25.9310  -29.4830   20.7410 C   0  0  0  0  0  0  0  0  0  0  0  0
  -27.1400  -28.7630   20.7210 C   0  0  0  0  0  3  0  0  0  0  0  0
  -26.0290  -26.9350   19.5610 C   0  0  0  0  0  3  0  0  0  0  0  0
  -24.8180  -27.6620   19.5750 C   0  0  0  0  0  3  0  0  0  0  0  0
  -23.5340  -29.7970   20.2160 C   0  0  0  0  0  2  0  0  0  0  0  0
  -24.6030  -31.0950   22.1190 N   0  0  0  0  0  0  0  0  0  0  0  0
  -23.4810  -32.2090   23.7410 O   0  0  0  0  0  0  0  0  0  0  0  0
  -22.7000  -29.4720   22.5670 C   0  0  0  0  0  0  0  0  0  0  0  0
  -21.3760  -29.2830   22.4470 N   0  0  0  0  0  0  0  0  0  0  0  0
  -23.3920  -28.8580   23.3840 O   0  0  0  0  0  0  0  0  0  0  0  0
  -20.8840  -29.8250   21.7520 H   0  0  0  0  0  0  0  0  0  0  0  0
  -18.0100  -28.0810   22.9600 C   0  0  0  0  0  0  0  0  0  0  0  0
  -20.5650  -28.3490   23.2280 C   0  0  0  0  0  3  0  0  0  0  0  0
  -20.6750  -26.9150   22.6620 C   0  0  0  0  0  2  0  0  0  0  0  0
  -19.5750  -26.5790   21.6520 C   0  0  0  0  0  2  0  0  0  0  0  0
  -18.1920  -26.7260   22.2940 C   0  0  0  0  0  2  0  0  0  0  0  0
  -19.1250  -28.8500   23.3820 C   0  0  0  0  0  0  0  0  0  0  0  0
  -18.9030  -30.1200   23.9570 C   0  0  0  0  0  3  0  0  0  0  0  0
  -17.5950  -30.6170   24.1240 C   0  0  0  0  0  3  0  0  0  0  0  0
  -16.4950  -29.8410   23.7210 C   0  0  0  0  0  3  0  0  0  0  0  0
  -16.7020  -28.5780   23.1410 C   0  0  0  0  0  3  0  0  0  0  0  0
  -25.8570  -32.5300   23.8240 C   0  0  0  0  0  3  0  0  0  0  0  0
  -25.5510  -33.9240   24.1730 N   0  0  0  0  0  0  0  0  0  0  0  0
  -25.8700  -34.9820   23.4170 C   0  0  0  0  0  0  0  0  0  0  0  0
  -26.5280  -34.8900   22.3760 O   0  0  0  0  0  0  0  0  0  0  0  0
  -24.9650  -34.0720   24.9820 H   0  0  0  0  0  0  0  0  0  0  0  0
  -24.1320  -36.7690   23.0940 C   0  0  0  0  0  1  0  0  0  0  0  0
  -25.3820  -36.3630   23.8900 C   0  0  0  0  0  3  0  0  0  0  0  0
  -27.5240  -37.2460   24.7010 C   0  0  0  0  0  1  0  0  0  0  0  0
  -26.4110  -37.4210   23.7730 N   0  0  0  0  0  0  0  0  0  0  0  0
  -26.0050  -38.3380   23.9320 H   0  0  0  0  0  0  0  0  0  0  0  0
  -26.3950  -31.7430   25.0810 C   0  0  1  0  0  0  0  0  0  0  0  0
  -25.3220  -31.4810   26.1620 C   0  0  0  0  0  1  0  0  0  0  0  0
  -26.9840  -30.3770   24.6580 C   0  0  0  0  0  1  0  0  0  0  0  0
  -27.5520  -32.5310   25.7360 C   0  0  0  0  0  1  0  0  0  0  0  0
  -29.6400  -19.2630   19.2310 C   0  0  0  0  0  0  0  0  0  0  0  0
  -29.5890  -18.8720   18.0600 O   0  0  0  0  0  0  0  0  0  0  0  0
  -29.5480  -18.2240   20.3630 C   0  0  0  0  0  2  0  0  0  0  0  0
  -30.1890  -16.8780   19.9630 C   0  0  0  0  0  2  0  0  0  0  0  0
  -29.9420  -15.7090   20.9450 C   0  0  0  0  0  2  0  0  0  0  0  0
  -30.6700  -14.4400   20.4520 C   0  0  0  0  0  0  0  0  0  0  0  0
  -30.3620  -12.2980   19.2910 C   0  0  0  0  0  2  0  0  0  0  0  0
  -29.4340  -12.5510   18.0830 C   0  0  0  0  0  2  0  0  0  0  0  0
  -27.9510  -12.4480   18.4940 C   0  0  0  0  0  2  0  0  0  0  0  0
  -27.6210  -13.2630   19.7730 C   0  0  0  0  0  3  0  0  0  0  0  0
  -28.6660  -12.9910   20.8810 C   0  0  0  0  0  2  0  0  0  0  0  0
  -29.9970  -13.2690   20.3310 N   0  0  0  0  0  0  0  0  0  0  0  0
  -31.8200  -14.5790   20.0270 O   0  0  0  0  0  0  0  0  0  0  0  0
  -25.2180  -13.8930   20.4440 C   0  0  0  0  0  0  0  0  0  0  0  0
  -24.1420  -13.1280   20.8120 C   0  0  0  0  0  0  0  0  0  0  0  0
  -24.5980  -11.7740   20.8070 C   0  0  0  0  0  0  0  0  0  0  0  0
  -26.2620  -13.0040   20.2410 N   0  0  0  0  0  0  0  0  0  0  0  0
  -25.8920  -11.7270   20.5160 N   0  0  0  0  0  0  0  0  0  0  0  0
  -23.8650  -10.5190   21.0070 C   0  0  0  0  0  0  0  0  0  0  0  0
  -24.2900   -9.5550   21.9470 C   0  0  0  0  0  3  0  0  0  0  0  0
  -23.5590   -8.3620   22.1340 C   0  0  0  0  0  3  0  0  0  0  0  0
  -22.3880   -8.1240   21.3770 C   0  0  0  0  0  0  0  0  0  0  0  0
  -21.9790   -9.0760   20.4250 C   0  0  0  0  0  3  0  0  0  0  0  0
  -22.7120  -10.2590   20.2380 C   0  0  0  0  0  3  0  0  0  0  0  0
  -21.6270   -6.9850   21.4730 O   0  0  0  0  0  0  0  0  0  0  0  0
  -21.5810   -6.2450   22.6270 C   0  0  0  0  0  0  0  0  0  0  0  0
  -21.1780   -6.8070   23.8580 C   0  0  0  0  0  3  0  0  0  0  0  0
  -21.0790   -5.9940   25.0030 C   0  0  0  0  0  3  0  0  0  0  0  0
  -21.3730   -4.6200   24.9220 C   0  0  0  0  0  0  0  0  0  0  0  0
  -21.7700   -4.0570   23.6970 C   0  0  0  0  0  3  0  0  0  0  0  0
  -21.8700   -4.8660   22.5520 C   0  0  0  0  0  0  0  0  0  0  0  0
  -22.2320   -4.3150   21.3680 F   0  0  0  0  0  0  0  0  0  0  0  0
  -21.2700   -3.8360   26.0210 F   0  0  0  0  0  0  0  0  0  0  0  0
  -22.7420  -13.6110   21.0590 C   0  0  0  0  0  0  0  0  0  0  0  0
  -22.0030  -12.9300   21.9280 N   0  0  0  0  0  0  0  0  0  0  0  0
  -22.3100  -14.6280   20.5160 O   0  0  0  0  0  0  0  0  0  0  0  0
  -22.3620  -12.1080   22.3890 H   0  0  0  0  0  0  0  0  0  0  0  0
  -21.0620  -13.2340   22.1330 H   0  0  0  0  0  0  0  0  0  0  0  0
  -25.3920  -15.2610   20.2480 N   0  0  0  0  0  0  0  0  0  0  0  0
  -24.6300  -15.9260   20.3430 H   0  0  0  0  0  0  0  0  0  0  0  0
  -26.2530  -15.6880   19.9310 H   0  0  0  0  0  0  0  0  0  0  0  0
  1  3  1  0
  2  4  2  0
  2  5  1  0
  4  6  1  0
  5  1  2  0
  6 10  1  0
  6  3  2  0
  7  8  1  0
  9 10  1  0
  9  7  1  0
 10  8  1  0
 11 12  1  0
 10 11  1  6
 13 24  2  0
 14 12  1  0
 14 19  1  0
 15 23  1  0
 15 25  1  0
 16 22  1  0
 16 18  1  0
 17 23  1  0
 18 17  1  0
 19 18  2  0
 20 21  1  0
 20 14  2  0
 21 16  2  0
 22 15  1  0
 23 13  1  0
 25 27  2  0
 26 25  1  0
 28 26  1  0
 29 38  2  0
 29 34  1  0
 30 26  1  0
 30 34  1  0
 31 30  1  0
 32 33  1  0
 32 31  1  0
 33 29  1  0
 34 35  2  0
 35 36  1  0
 37 36  2  0
 38 37  1  0
 39 13  1  0
 39 40  1  0
 39 49  1  0
 40 43  1  0
 41 45  1  0
 41 40  1  0
 42 41  2  0
 45 44  1  0
 47 45  1  0
 47 48  1  0
 47 46  1  0
 49 52  1  1
 49 50  1  0
 51 49  1  0
 53  5  1  0
 53 55  1  0
 54 53  2  0
 56 55  1  0
 56 57  1  0
 58 57  1  0
 59 64  1  0
 60 61  1  0
 60 59  1  0
 62 61  1  0
 62 69  1  0
 62 63  1  0
 64 58  1  0
 64 63  1  0
 65 58  2  0
 66 67  2  0
 67 86  1  0
 68 67  1  0
 68 71  1  0
 69 66  1  0
 69 70  1  0
 70 68  2  0
 71 72  1  0
 72 73  2  0
 74 77  1  0
 74 73  1  0
 75 74  2  0
 76 75  1  0
 76 71  2  0
 77 78  1  0
 78 79  1  0
 79 80  2  0
 81 80  1  0
 81 85  1  0
 82 81  2  0
 83 78  2  0
 83 82  1  0
 84 83  1  0
 86 87  1  0
 87 90  1  0
 87 89  1  0
 88 86  2  0
 91 92  1  0
 91 66  1  0
 93 91  1  0
M  ISO  4  11 101  12 101  57 100  58 100
M  END
>  <TORSDO>  (86) 
F 22

>  <SCORE>  (86) 
-13.233

>  <name>  (86) 
85

>  <ligand_id>  (86) 
85

>  <original_smiles>  (86) 
[H]c1c([H])c([H])c2c(c1[H])C([H])([H])C([H])([H])C([H])([H])C2([H])N([H])C(=O)C1([H])N(C(=O)C([H])(N([H])C(=O)C([H])(N([H])C([H])([H])[H])C([H])([H])[H])C(C([H])([H])[H])(C([H])([H])[H])C([H])([H])[H])C([H])([H])c2c([H])c(OC([H])([H])C3(c4c([H])c([H])c(C(=O)C([H])([H])C([H])([H])C([H])([H])C(=O)N5C([H])([H])C([H])([H])C([H])([H])C([H])(n6nc(-c7c([H])c([H])c(Oc8c([H])c([H])c(F)c([H])c8F)c([H])c7[H])c(C(=O)N([H])[H])c6N([H])[H])C5([H])[H])c([H])c4[H])C([H])([H])C([H])([H])C3([H])[H])c([H])c([H])c2C1([H])[H]

>  <smiles>  (86) 
[H]c1c([H])c([H])c2c(c1[H])C([H])([H])C([H])([H])C([H])([H])C2([H])N([H])C(=O)C1([H])N(C(=O)C([H])(N([H])C(=O)C([H])(N([H])C([H])([H])[H])C([H])([H])[H])C(C([H])([H])[H])(C([H])([H])[H])C([H])([H])[H])C([H])([H])c2c([H])c(OC([H])([H])C3(c4c([H])c([H])c(C(=O)C([H])([H])C([H])([H])C([H])([H])C(=O)N5C([H])([H])C([H])([H])C([H])([H])C([H])(n6nc(-c7c([H])c([H])c(Oc8c([H])c([H])c(F)c([H])c8F)c([H])c7[H])c(C(=O)N([H])[H])c6N([H])[H])C5([H])[H])c([H])c4[H])C([H])([H])C([H])([H])C3([H])[H])c([H])c([H])c2C1([H])[H]

$$$$
86:0:0
     RDKit          3D

 92100  0  0  1  0  0  0  0  0999 V2000
  -30.1180  -20.0050   19.7210 C   0  0  0  0  0  3  0  0  0  0  0  0
  -31.0580  -19.6140   21.9290 C   0  0  0  0  0  3  0  0  0  0  0  0
  -30.3840  -21.3830   19.8490 C   0  0  0  0  0  3  0  0  0  0  0  0
  -31.3120  -20.9950   22.0620 C   0  0  0  0  0  3  0  0  0  0  0  0
  -30.4510  -19.0990   20.7560 C   0  0  0  0  0  0  0  0  0  0  0  0
  -30.9770  -21.8870   21.0230 C   0  0  0  0  0  0  0  0  0  0  0  0
  -30.1300  -17.6420   20.5870 C   0  0  0  0  0  0  0  0  0  0  0  0
  -29.4760  -17.2170   19.6280 O   0  0  0  0  0  0  0  0  0  0  0  0
  -30.6300  -16.6540   21.6630 C   0  0  0  0  0  2  0  0  0  0  0  0
  -30.7280  -14.4040   20.5820 C   0  0  0  0  0  0  0  0  0  0  0  0
  -30.3900  -12.3080   19.3260 C   0  0  0  0  0  2  0  0  0  0  0  0
  -29.4630  -12.5590   18.1220 C   0  0  0  0  0  2  0  0  0  0  0  0
  -27.9830  -12.4350   18.5310 C   0  0  0  0  0  2  0  0  0  0  0  0
  -27.6440  -13.2450   19.8110 C   0  0  0  0  0  3  0  0  0  0  0  0
  -28.6810  -12.9680   20.9210 C   0  0  0  0  0  2  0  0  0  0  0  0
  -30.0230  -13.2610   20.3840 N   0  0  0  0  0  0  0  0  0  0  0  0
  -31.7930  -14.6570   20.0130 O   0  0  0  0  0  0  0  0  0  0  0  0
  -30.1640  -15.2830   21.4190 N   0  0  0  0  0  0  0  0  0  0  0  0
  -29.2770  -15.0220   21.8220 H   0  0  0  0  0  0  0  0  0  0  0  0
  -25.2320  -13.8740   20.4630 C   0  0  0  0  0  0  0  0  0  0  0  0
  -24.1520  -13.1120   20.8230 C   0  0  0  0  0  0  0  0  0  0  0  0
  -24.6080  -11.7570   20.8200 C   0  0  0  0  0  0  0  0  0  0  0  0
  -26.2780  -12.9860   20.2650 N   0  0  0  0  0  0  0  0  0  0  0  0
  -25.9030  -11.7080   20.5340 N   0  0  0  0  0  0  0  0  0  0  0  0
  -23.8730  -10.5020   21.0170 C   0  0  0  0  0  0  0  0  0  0  0  0
  -24.2910   -9.5410   21.9650 C   0  0  0  0  0  3  0  0  0  0  0  0
  -23.5560   -8.3490   22.1460 C   0  0  0  0  0  3  0  0  0  0  0  0
  -22.3910   -8.1090   21.3810 C   0  0  0  0  0  0  0  0  0  0  0  0
  -21.9930   -9.0580   20.4230 C   0  0  0  0  0  3  0  0  0  0  0  0
  -22.7280  -10.2410   20.2380 C   0  0  0  0  0  3  0  0  0  0  0  0
  -21.6310   -6.9680   21.4710 O   0  0  0  0  0  0  0  0  0  0  0  0
  -21.5720   -6.2320   22.6270 C   0  0  0  0  0  0  0  0  0  0  0  0
  -21.1430   -6.7960   23.8480 C   0  0  0  0  0  3  0  0  0  0  0  0
  -21.0290   -5.9870   24.9950 C   0  0  0  0  0  3  0  0  0  0  0  0
  -21.3350   -4.6150   24.9240 C   0  0  0  0  0  0  0  0  0  0  0  0
  -21.7590   -4.0500   23.7090 C   0  0  0  0  0  3  0  0  0  0  0  0
  -21.8720   -4.8560   22.5620 C   0  0  0  0  0  0  0  0  0  0  0  0
  -22.2610   -4.3020   21.3880 F   0  0  0  0  0  0  0  0  0  0  0  0
  -21.2180   -3.8360   26.0260 F   0  0  0  0  0  0  0  0  0  0  0  0
  -22.7530  -13.6000   21.0670 C   0  0  0  0  0  0  0  0  0  0  0  0
  -22.0070  -12.9210   21.9310 N   0  0  0  0  0  0  0  0  0  0  0  0
  -22.3300  -14.6200   20.5270 O   0  0  0  0  0  0  0  0  0  0  0  0
  -22.3610  -12.0960   22.3930 H   0  0  0  0  0  0  0  0  0  0  0  0
  -21.0690  -13.2350   22.1350 H   0  0  0  0  0  0  0  0  0  0  0  0
  -25.4050  -15.2410   20.2730 N   0  0  0  0  0  0  0  0  0  0  0  0
  -24.6360  -15.8990   20.3450 H   0  0  0  0  0  0  0  0  0  0  0  0
  -26.2670  -15.6750   19.9680 H   0  0  0  0  0  0  0  0  0  0  0  0
  -31.2980  -23.3710   21.1420 C   0  0  0  0  0  2  0  0  0  0  0  0
  -30.0590  -24.2910   21.1960 C   0  0  0  0  0  2  0  0  0  0  0  0
  -30.4530  -25.7790   21.1080 C   0  0  0  0  0  2  0  0  0  0  0  0
  -29.2870  -26.7740   21.2470 C   0  0  0  0  0  2  0  0  0  0  0  0
  -28.4080  -26.6900   20.1280 O   0  0  0  0  0  0  0  0  0  0  0  0
  -24.5980  -31.8900   23.2330 C   0  0  0  0  0  0  0  0  0  0  0  0
  -27.2660  -27.4620   20.1730 C   0  0  0  0  0  0  0  0  0  0  0  0
  -23.3930  -30.4770   21.5970 C   0  0  0  0  0  3  0  0  0  0  0  0
  -24.8520  -28.9400   20.1750 C   0  0  0  0  0  0  0  0  0  0  0  0
  -25.9130  -30.8450   21.3990 C   0  0  0  0  0  2  0  0  0  0  0  0
  -26.0020  -29.4740   20.7660 C   0  0  0  0  0  0  0  0  0  0  0  0
  -27.2080  -28.7450   20.7700 C   0  0  0  0  0  3  0  0  0  0  0  0
  -26.1040  -26.9420   19.5680 C   0  0  0  0  0  3  0  0  0  0  0  0
  -24.8960  -27.6690   19.5720 C   0  0  0  0  0  3  0  0  0  0  0  0
  -23.6020  -29.7910   20.2200 C   0  0  0  0  0  2  0  0  0  0  0  0
  -24.6530  -31.0830   22.1360 N   0  0  0  0  0  0  0  0  0  0  0  0
  -23.5140  -32.1840   23.7550 O   0  0  0  0  0  0  0  0  0  0  0  0
  -22.7440  -29.4580   22.5600 C   0  0  0  0  0  0  0  0  0  0  0  0
  -21.4190  -29.2760   22.4350 N   0  0  0  0  0  0  0  0  0  0  0  0
  -23.4300  -28.8320   23.3740 O   0  0  0  0  0  0  0  0  0  0  0  0
  -20.9290  -29.8310   21.7480 H   0  0  0  0  0  0  0  0  0  0  0  0
  -18.0440  -28.0950   22.9390 C   0  0  0  0  0  0  0  0  0  0  0  0
  -20.6030  -28.3400   23.2070 C   0  0  0  0  0  3  0  0  0  0  0  0
  -20.6980  -26.9090   22.6250 C   0  0  0  0  0  2  0  0  0  0  0  0
  -19.5920  -26.5950   21.6140 C   0  0  0  0  0  2  0  0  0  0  0  0
  -18.2130  -26.7470   22.2600 C   0  0  0  0  0  2  0  0  0  0  0  0
  -19.1670  -28.8510   23.3690 C   0  0  0  0  0  0  0  0  0  0  0  0
  -18.9560  -30.1140   23.9630 C   0  0  0  0  0  3  0  0  0  0  0  0
  -17.6540  -30.6210   24.1330 C   0  0  0  0  0  3  0  0  0  0  0  0
  -16.5450  -29.8630   23.7180 C   0  0  0  0  0  3  0  0  0  0  0  0
  -16.7410  -28.6020   23.1270 C   0  0  0  0  0  3  0  0  0  0  0  0
  -25.8880  -32.5110   23.8590 C   0  0  0  0  0  3  0  0  0  0  0  0
  -25.5870  -33.9080   24.1900 N   0  0  0  0  0  0  0  0  0  0  0  0
  -25.9150  -34.9580   23.4260 C   0  0  0  0  0  0  0  0  0  0  0  0
  -26.5780  -34.8510   22.3900 O   0  0  0  0  0  0  0  0  0  0  0  0
  -24.9970  -34.0660   24.9950 H   0  0  0  0  0  0  0  0  0  0  0  0
  -24.1840  -36.7460   23.0760 C   0  0  0  0  0  1  0  0  0  0  0  0
  -25.4290  -36.3460   23.8820 C   0  0  0  0  0  3  0  0  0  0  0  0
  -27.5700  -37.2310   24.6940 C   0  0  0  0  0  1  0  0  0  0  0  0
  -26.4610  -37.4000   23.7590 N   0  0  0  0  0  0  0  0  0  0  0  0
  -26.0550  -38.3190   23.9110 H   0  0  0  0  0  0  0  0  0  0  0  0
  -26.4070  -31.7350   25.1320 C   0  0  1  0  0  0  0  0  0  0  0  0
  -25.3160  -31.4960   26.2010 C   0  0  0  0  0  1  0  0  0  0  0  0
  -26.9880  -30.3580   24.7330 C   0  0  0  0  0  1  0  0  0  0  0  0
  -27.5630  -32.5240   25.7920 C   0  0  0  0  0  1  0  0  0  0  0  0
  1  3  2  0
  1  5  1  0
  2  4  1  0
  3  6  1  0
  5  2  2  0
  6 48  1  0
  6  4  2  0
  7  5  1  0
  7  9  1  0
  8  7  2  0
 10 18  1  0
 11 16  1  0
 12 13  1  0
 12 11  1  0
 14 13  1  0
 14 23  1  0
 14 15  1  0
 16 10  1  0
 16 15  1  0
 17 10  2  0
 18  9  1  0
 18 19  1  0
 20 21  2  0
 21 40  1  0
 22 21  1  0
 22 25  1  0
 23 20  1  0
 23 24  1  0
 24 22  2  0
 25 26  1  0
 26 27  2  0
 28 31  1  0
 28 27  1  0
 29 28  2  0
 30 29  1  0
 30 25  2  0
 31 32  1  0
 32 33  1  0
 33 34  2  0
 35 34  1  0
 35 39  1  0
 36 35  2  0
 37 32  2  0
 37 36  1  0
 38 37  1  0
 40 41  1  0
 41 44  1  0
 41 43  1  0
 42 40  2  0
 45 46  1  0
 45 20  1  0
 47 45  1  0
 48 49  1  0
 50 49  1  0
 50 51  1  0
 52 54  1  0
 52 51  1  0
 53 64  2  0
 54 59  1  0
 55 63  1  0
 55 65  1  0
 56 62  1  0
 56 58  1  0
 57 63  1  0
 58 59  2  0
 58 57  1  0
 60 61  1  0
 60 54  2  0
 61 56  2  0
 62 55  1  0
 63 53  1  0
 65 67  2  0
 66 65  1  0
 68 66  1  0
 69 78  2  0
 69 74  1  0
 70 66  1  0
 70 74  1  0
 71 70  1  0
 72 73  1  0
 72 71  1  0
 73 69  1  0
 74 75  2  0
 75 76  1  0
 77 76  2  0
 78 77  1  0
 79 53  1  0
 79 80  1  0
 79 89  1  0
 80 83  1  0
 81 85  1  0
 81 80  1  0
 82 81  2  0
 85 84  1  0
 87 85  1  0
 87 88  1  0
 87 86  1  0
 89 92  1  1
 89 90  1  0
 91 89  1  0
M  ISO  4  10 100  18 100  51 101  52 101
M  END
>  <TORSDO>  (87) 
F 22

>  <SCORE>  (87) 
-13.331

>  <name>  (87) 
86

>  <ligand_id>  (87) 
86

>  <original_smiles>  (87) 
[H]c1c([H])c([H])c2c(c1[H])C([H])([H])C([H])([H])C([H])([H])C2([H])N([H])C(=O)C1([H])N(C(=O)C([H])(N([H])C(=O)C([H])(N([H])C([H])([H])[H])C([H])([H])[H])C(C([H])([H])[H])(C([H])([H])[H])C([H])([H])[H])C([H])([H])c2c([H])c(OC([H])([H])C([H])([H])C([H])([H])C([H])([H])c3c([H])c([H])c(C(=O)C([H])([H])N([H])C(=O)N4C([H])([H])C([H])([H])C([H])([H])C([H])(n5nc(-c6c([H])c([H])c(Oc7c([H])c([H])c(F)c([H])c7F)c([H])c6[H])c(C(=O)N([H])[H])c5N([H])[H])C4([H])[H])c([H])c3[H])c([H])c([H])c2C1([H])[H]

>  <smiles>  (87) 
[H]c1c([H])c([H])c2c(c1[H])C([H])([H])C([H])([H])C([H])([H])C2([H])N([H])C(=O)C1([H])N(C(=O)C([H])(N([H])C(=O)C([H])(N([H])C([H])([H])[H])C([H])([H])[H])C(C([H])([H])[H])(C([H])([H])[H])C([H])([H])[H])C([H])([H])c2c([H])c(OC([H])([H])C([H])([H])C([H])([H])C([H])([H])c3c([H])c([H])c(C(=O)C([H])([H])N([H])C(=O)N4C([H])([H])C([H])([H])C([H])([H])C([H])(n5nc(-c6c([H])c([H])c(Oc7c([H])c([H])c(F)c([H])c7F)c([H])c6[H])c(C(=O)N([H])[H])c5N([H])[H])C4([H])[H])c([H])c3[H])c([H])c([H])c2C1([H])[H]

$$$$
87:0:0
     RDKit          3D

 92101  0  0  1  0  0  0  0  0999 V2000
  -28.3760  -24.3780   19.7010 C   0  0  0  0  0  2  0  0  0  0  0  0
  -29.7020  -25.3580   21.5490 C   0  0  0  0  0  2  0  0  0  0  0  0
  -28.4150  -23.0360   20.4390 C   0  0  0  0  0  2  0  0  0  0  0  0
  -29.7550  -23.9630   22.1980 C   0  0  0  0  0  2  0  0  0  0  0  0
  -28.4250  -25.5210   20.7180 C   0  0  0  0  0  3  0  0  0  0  0  0
  -29.6760  -22.8930   21.1860 N   0  0  0  0  0  0  0  0  0  0  0  0
  -31.1150  -21.3060   22.4570 C   0  0  0  0  0  2  0  0  0  0  0  0
  -31.1890  -19.7810   22.5040 C   0  0  0  0  0  2  0  0  0  0  0  0
  -29.5120  -20.3840   20.9140 C   0  0  0  0  0  2  0  0  0  0  0  0
  -29.7290  -21.5850   21.8610 C   0  0  0  0  0  3  0  0  0  0  0  0
  -30.4560  -19.3170   21.3080 N   0  0  2  0  0  4  0  0  0  0  0  0
  -31.1220  -19.2690   20.5510 H   0  0  0  0  0  0  0  0  0  0  0  0
  -29.8250  -17.9830   21.4370 C   0  0  0  0  0  2  0  0  0  0  0  0
  -30.8340  -16.8380   21.2650 C   0  0  0  0  0  2  0  0  0  0  0  0
  -30.1560  -15.4530   21.3800 C   0  0  0  0  0  2  0  0  0  0  0  0
  -30.7470  -14.3710   20.4620 C   0  0  0  0  0  0  0  0  0  0  0  0
  -30.3820  -12.2920   19.1820 C   0  0  0  0  0  2  0  0  0  0  0  0
  -29.4340  -12.5610   17.9970 C   0  0  0  0  0  2  0  0  0  0  0  0
  -27.9590  -12.4420   18.4350 C   0  0  0  0  0  2  0  0  0  0  0  0
  -27.6520  -13.2500   19.7240 C   0  0  0  0  0  3  0  0  0  0  0  0
  -28.7060  -12.9520   20.8150 C   0  0  0  0  0  2  0  0  0  0  0  0
  -30.0370  -13.2340   20.2530 N   0  0  0  0  0  0  0  0  0  0  0  0
  -31.8210  -14.5920   19.8920 O   0  0  0  0  0  0  0  0  0  0  0  0
  -25.2520  -13.8890   20.4140 C   0  0  0  0  0  0  0  0  0  0  0  0
  -24.1770  -13.1290   20.7920 C   0  0  0  0  0  0  0  0  0  0  0  0
  -24.6280  -11.7740   20.7780 C   0  0  0  0  0  0  0  0  0  0  0  0
  -26.2920  -12.9970   20.2000 N   0  0  0  0  0  0  0  0  0  0  0  0
  -25.9190  -11.7210   20.4720 N   0  0  0  0  0  0  0  0  0  0  0  0
  -23.8930  -10.5190   20.9840 C   0  0  0  0  0  0  0  0  0  0  0  0
  -24.3270   -9.5540   21.9190 C   0  0  0  0  0  3  0  0  0  0  0  0
  -23.5940   -8.3620   22.1110 C   0  0  0  0  0  3  0  0  0  0  0  0
  -22.4130   -8.1290   21.3670 C   0  0  0  0  0  0  0  0  0  0  0  0
  -21.9990   -9.0820   20.4200 C   0  0  0  0  0  3  0  0  0  0  0  0
  -22.7320  -10.2650   20.2270 C   0  0  0  0  0  3  0  0  0  0  0  0
  -21.6510   -6.9900   21.4670 O   0  0  0  0  0  0  0  0  0  0  0  0
  -21.6110   -6.2510   22.6220 C   0  0  0  0  0  0  0  0  0  0  0  0
  -21.2140   -6.8160   23.8540 C   0  0  0  0  0  3  0  0  0  0  0  0
  -21.1200   -6.0040   25.0030 C   0  0  0  0  0  3  0  0  0  0  0  0
  -21.4110   -4.6290   24.9200 C   0  0  0  0  0  0  0  0  0  0  0  0
  -21.8000   -4.0650   23.6930 C   0  0  0  0  0  3  0  0  0  0  0  0
  -21.8970   -4.8730   22.5460 C   0  0  0  0  0  0  0  0  0  0  0  0
  -22.2520   -4.3200   21.3620 F   0  0  0  0  0  0  0  0  0  0  0  0
  -21.3130   -3.8480   26.0210 F   0  0  0  0  0  0  0  0  0  0  0  0
  -22.7830  -13.6200   21.0570 C   0  0  0  0  0  0  0  0  0  0  0  0
  -22.0490  -12.9400   21.9310 N   0  0  0  0  0  0  0  0  0  0  0  0
  -22.3510  -14.6410   20.5230 O   0  0  0  0  0  0  0  0  0  0  0  0
  -22.4090  -12.1120   22.3850 H   0  0  0  0  0  0  0  0  0  0  0  0
  -21.1140  -13.2510   22.1520 H   0  0  0  0  0  0  0  0  0  0  0  0
  -25.4280  -15.2550   20.2180 N   0  0  0  0  0  0  0  0  0  0  0  0
  -24.6660  -15.9180   20.3080 H   0  0  0  0  0  0  0  0  0  0  0  0
  -26.2830  -15.6780   19.8780 H   0  0  0  0  0  0  0  0  0  0  0  0
  -28.4490  -26.7940   20.0790 O   0  0  0  0  0  0  0  0  0  0  0  0
  -24.6280  -31.8850   23.2240 C   0  0  0  0  0  0  0  0  0  0  0  0
  -27.2630  -27.4820   20.1090 C   0  0  0  0  0  0  0  0  0  0  0  0
  -23.4090  -30.4730   21.6000 C   0  0  0  0  0  3  0  0  0  0  0  0
  -24.8530  -28.9450   20.1610 C   0  0  0  0  0  0  0  0  0  0  0  0
  -25.9290  -30.8500   21.3740 C   0  0  0  0  0  2  0  0  0  0  0  0
  -26.0140  -29.4830   20.7310 C   0  0  0  0  0  0  0  0  0  0  0  0
  -27.2230  -28.7590   20.7000 C   0  0  0  0  0  3  0  0  0  0  0  0
  -26.0870  -26.9450   19.5410 C   0  0  0  0  0  3  0  0  0  0  0  0
  -24.8830  -27.6720   19.5660 C   0  0  0  0  0  3  0  0  0  0  0  0
  -23.6050  -29.7930   20.2180 C   0  0  0  0  0  2  0  0  0  0  0  0
  -24.6740  -31.0790   22.1260 N   0  0  0  0  0  0  0  0  0  0  0  0
  -23.5470  -32.1740   23.7560 O   0  0  0  0  0  0  0  0  0  0  0  0
  -22.7740  -29.4470   22.5650 C   0  0  0  0  0  0  0  0  0  0  0  0
  -21.4500  -29.2610   22.4500 N   0  0  0  0  0  0  0  0  0  0  0  0
  -23.4690  -28.8210   23.3700 O   0  0  0  0  0  0  0  0  0  0  0  0
  -20.9510  -29.8190   21.7710 H   0  0  0  0  0  0  0  0  0  0  0  0
  -18.0850  -28.0510   22.9630 C   0  0  0  0  0  0  0  0  0  0  0  0
  -20.6420  -28.3200   23.2250 C   0  0  0  0  0  3  0  0  0  0  0  0
  -20.7490  -26.8880   22.6510 C   0  0  0  0  0  2  0  0  0  0  0  0
  -19.6450  -26.5610   21.6410 C   0  0  0  0  0  2  0  0  0  0  0  0
  -18.2640  -26.7010   22.2900 C   0  0  0  0  0  2  0  0  0  0  0  0
  -19.2020  -28.8180   23.3880 C   0  0  0  0  0  0  0  0  0  0  0  0
  -18.9810  -30.0830   23.9770 C   0  0  0  0  0  3  0  0  0  0  0  0
  -17.6750  -30.5800   24.1460 C   0  0  0  0  0  3  0  0  0  0  0  0
  -16.5720  -29.8100   23.7390 C   0  0  0  0  0  3  0  0  0  0  0  0
  -16.7780  -28.5480   23.1530 C   0  0  0  0  0  3  0  0  0  0  0  0
  -25.9210  -32.5090   23.8380 C   0  0  0  0  0  3  0  0  0  0  0  0
  -26.4590  -31.7250   25.0980 C   0  0  1  0  0  0  0  0  0  0  0  0
  -25.3820  -31.4720   26.1780 C   0  0  0  0  0  1  0  0  0  0  0  0
  -27.0430  -30.3550   24.6810 C   0  0  0  0  0  1  0  0  0  0  0  0
  -27.6170  -32.5170   25.7520 C   0  0  0  0  0  1  0  0  0  0  0  0
  -25.6150  -33.9020   24.1850 N   0  0  0  0  0  0  0  0  0  0  0  0
  -25.9300  -34.9580   23.4250 C   0  0  0  0  0  0  0  0  0  0  0  0
  -26.5840  -34.8630   22.3830 O   0  0  0  0  0  0  0  0  0  0  0  0
  -25.0340  -34.0490   24.9970 H   0  0  0  0  0  0  0  0  0  0  0  0
  -24.1840  -36.7390   23.1070 C   0  0  0  0  0  1  0  0  0  0  0  0
  -25.4400  -36.3400   23.8970 C   0  0  0  0  0  3  0  0  0  0  0  0
  -27.5840  -37.2310   24.6960 C   0  0  0  0  0  1  0  0  0  0  0  0
  -26.4650  -37.4010   23.7730 N   0  0  0  0  0  0  0  0  0  0  0  0
  -26.0570  -38.3170   23.9350 H   0  0  0  0  0  0  0  0  0  0  0  0
  1  3  1  0
  1  5  1  0
  2  4  1  0
  5 52  1  0
  5  2  1  0
  6  3  1  0
  6 10  1  0
  6  4  1  0
  7  8  1  0
  9 11  1  0
 10  9  1  0
 10  7  1  0
 11 13  1  0
 11  8  1  0
 11 12  1  6
 14 15  1  0
 14 13  1  0
 16 15  1  0
 17 22  1  0
 18 19  1  0
 18 17  1  0
 20 19  1  0
 20 27  1  0
 20 21  1  0
 22 16  1  0
 22 21  1  0
 23 16  2  0
 24 25  2  0
 25 44  1  0
 26 25  1  0
 26 29  1  0
 27 24  1  0
 27 28  1  0
 28 26  2  0
 29 30  1  0
 30 31  2  0
 32 35  1  0
 32 31  1  0
 33 32  2  0
 34 33  1  0
 34 29  2  0
 35 36  1  0
 36 37  1  0
 37 38  2  0
 39 38  1  0
 39 43  1  0
 40 39  2  0
 41 36  2  0
 41 40  1  0
 42 41  1  0
 44 45  1  0
 45 48  1  0
 45 47  1  0
 46 44  2  0
 49 50  1  0
 49 24  1  0
 51 49  1  0
 52 54  1  0
 53 64  2  0
 54 59  1  0
 55 63  1  0
 55 65  1  0
 56 62  1  0
 56 58  1  0
 57 63  1  0
 58 57  1  0
 59 58  2  0
 60 61  1  0
 60 54  2  0
 61 56  2  0
 62 55  1  0
 63 53  1  0
 65 67  2  0
 66 65  1  0
 68 66  1  0
 69 78  2  0
 69 74  1  0
 70 66  1  0
 70 74  1  0
 71 70  1  0
 72 73  1  0
 72 71  1  0
 73 69  1  0
 74 75  2  0
 75 76  1  0
 77 76  2  0
 78 77  1  0
 79 53  1  0
 79 84  1  0
 79 80  1  0
 80 83  1  1
 80 81  1  0
 82 80  1  0
 84 87  1  0
 85 89  1  0
 85 84  1  0
 86 85  2  0
 89 88  1  0
 91 89  1  0
 91 92  1  0
 91 90  1  0
M  ISO  4   5 101  15 100  16 100  52 101
M  END
>  <TORSDO>  (88) 
F 20

>  <SCORE>  (88) 
-14.089

>  <name>  (88) 
87

>  <ligand_id>  (88) 
87

>  <original_smiles>  (88) 
[H]c1c([H])c([H])c2c(c1[H])C([H])([H])C([H])([H])C([H])([H])C2([H])N([H])C(=O)C1([H])N(C(=O)C([H])(N([H])C(=O)C([H])(N([H])C([H])([H])[H])C([H])([H])[H])C(C([H])([H])[H])(C([H])([H])[H])C([H])([H])[H])C([H])([H])c2c([H])c(OC3([H])C([H])([H])C([H])([H])N(C4([H])C([H])([H])C([H])([H])[N+]([H])(C([H])([H])C([H])([H])C([H])([H])C(=O)N5C([H])([H])C([H])([H])C([H])([H])C([H])(n6nc(-c7c([H])c([H])c(Oc8c([H])c([H])c(F)c([H])c8F)c([H])c7[H])c(C(=O)N([H])[H])c6N([H])[H])C5([H])[H])C4([H])[H])C([H])([H])C3([H])[H])c([H])c([H])c2C1([H])[H]

>  <smiles>  (88) 
[H]c1c([H])c([H])c2c(c1[H])C([H])([H])C([H])([H])C([H])([H])C2([H])N([H])C(=O)C1([H])N(C(=O)C([H])(N([H])C(=O)C([H])(N([H])C([H])([H])[H])C([H])([H])[H])C(C([H])([H])[H])(C([H])([H])[H])C([H])([H])[H])C([H])([H])c2c([H])c(OC3([H])C([H])([H])C([H])([H])N(C4([H])C([H])([H])C([H])([H])[N+]([H])(C([H])([H])C([H])([H])C([H])([H])C(=O)N5C([H])([H])C([H])([H])C([H])([H])C([H])(n6nc(-c7c([H])c([H])c(Oc8c([H])c([H])c(F)c([H])c8F)c([H])c7[H])c(C(=O)N([H])[H])c6N([H])[H])C5([H])[H])C4([H])[H])C([H])([H])C3([H])[H])c([H])c([H])c2C1([H])[H]

$$$$
88:0:0
     RDKit          3D

 97106  0  0  1  0  0  0  0  0999 V2000
  -33.2220  -21.0110   21.9950 C   0  0  0  0  0  2  0  0  0  0  0  0
  -33.4440  -19.6490   21.3200 C   0  0  0  0  0  2  0  0  0  0  0  0
  -30.1740  -18.9070   17.7610 C   0  0  0  0  0  2  0  0  0  0  0  0
  -31.7520  -21.4570   21.9030 C   0  0  0  0  0  2  0  0  0  0  0  0
  -32.8990  -19.6320   19.8770 C   0  0  0  0  0  2  0  0  0  0  0  0
  -30.9510  -20.1340   18.2810 C   0  0  0  0  0  2  0  0  0  0  0  0
  -30.6710  -17.6000   18.3940 C   0  0  0  0  0  2  0  0  0  0  0  0
  -30.4920  -18.9800   20.4860 C   0  0  0  0  0  2  0  0  0  0  0  0
  -31.2240  -21.4440   20.4510 C   0  0  0  0  0  3  0  0  0  0  0  0
  -31.3960  -20.0380   19.7740 C   0  0  1  0  0  0  0  0  0  0  0  0
  -30.5500  -17.6140   19.8820 N   0  0  1  0  0  4  0  0  0  0  0  0
  -31.4230  -17.2120   20.1940 H   0  0  0  0  0  0  0  0  0  0  0  0
  -31.8970  -22.5760   19.6690 C   0  0  0  0  0  3  0  0  0  0  0  0
  -31.3440  -23.7210   19.2180 C   0  0  0  0  0  0  0  0  0  0  0  0
  -32.1770  -24.7630   18.4980 C   0  0  0  0  0  1  0  0  0  0  0  0
  -29.8860  -24.1060   19.3930 C   0  0  0  0  0  2  0  0  0  0  0  0
  -29.6460  -24.7820   20.7510 C   0  0  0  0  0  2  0  0  0  0  0  0
  -28.3000  -25.5100   20.8330 C   0  0  0  0  0  2  0  0  0  0  0  0
  -28.3970  -26.7690   20.1730 O   0  0  0  0  0  0  0  0  0  0  0  0
  -24.5840  -31.9220   23.2550 C   0  0  0  0  0  0  0  0  0  0  0  0
  -27.2270  -27.4880   20.1840 C   0  0  0  0  0  0  0  0  0  0  0  0
  -23.3770  -30.5050   21.6270 C   0  0  0  0  0  3  0  0  0  0  0  0
  -24.8290  -28.9670   20.2050 C   0  0  0  0  0  0  0  0  0  0  0  0
  -25.9010  -30.8720   21.4240 C   0  0  0  0  0  2  0  0  0  0  0  0
  -25.9870  -29.5040   20.7830 C   0  0  0  0  0  0  0  0  0  0  0  0
  -27.1940  -28.7720   20.7650 C   0  0  0  0  0  3  0  0  0  0  0  0
  -26.0570  -26.9590   19.6030 C   0  0  0  0  0  3  0  0  0  0  0  0
  -24.8570  -27.6930   19.6130 C   0  0  0  0  0  3  0  0  0  0  0  0
  -23.5840  -29.8210   20.2500 C   0  0  0  0  0  2  0  0  0  0  0  0
  -24.6390  -31.1110   22.1620 N   0  0  0  0  0  0  0  0  0  0  0  0
  -23.4990  -32.2170   23.7740 O   0  0  0  0  0  0  0  0  0  0  0  0
  -22.7310  -29.4860   22.5920 C   0  0  0  0  0  0  0  0  0  0  0  0
  -21.4070  -29.2980   22.4640 N   0  0  0  0  0  0  0  0  0  0  0  0
  -23.4160  -28.8660   23.4100 O   0  0  0  0  0  0  0  0  0  0  0  0
  -20.9160  -29.8510   21.7750 H   0  0  0  0  0  0  0  0  0  0  0  0
  -18.0360  -28.0910   22.9500 C   0  0  0  0  0  0  0  0  0  0  0  0
  -20.5910  -28.3610   23.2360 C   0  0  0  0  0  3  0  0  0  0  0  0
  -20.7030  -26.9270   22.6690 C   0  0  0  0  0  2  0  0  0  0  0  0
  -19.6090  -26.5930   21.6510 C   0  0  0  0  0  2  0  0  0  0  0  0
  -18.2230  -26.7380   22.2860 C   0  0  0  0  0  2  0  0  0  0  0  0
  -19.1490  -28.8600   23.3820 C   0  0  0  0  0  0  0  0  0  0  0  0
  -18.9220  -30.1280   23.9620 C   0  0  0  0  0  3  0  0  0  0  0  0
  -17.6150  -30.6260   24.1140 C   0  0  0  0  0  3  0  0  0  0  0  0
  -16.5160  -29.8540   23.7000 C   0  0  0  0  0  3  0  0  0  0  0  0
  -16.7270  -28.5880   23.1240 C   0  0  0  0  0  3  0  0  0  0  0  0
  -25.8720  -32.5460   23.8780 C   0  0  0  0  0  3  0  0  0  0  0  0
  -25.5720  -33.9450   24.2040 N   0  0  0  0  0  0  0  0  0  0  0  0
  -25.9090  -34.9920   23.4400 C   0  0  0  0  0  0  0  0  0  0  0  0
  -26.5800  -34.8810   22.4100 O   0  0  0  0  0  0  0  0  0  0  0  0
  -24.9750  -34.1060   25.0020 H   0  0  0  0  0  0  0  0  0  0  0  0
  -24.1840  -36.7830   23.0710 C   0  0  0  0  0  1  0  0  0  0  0  0
  -25.4220  -36.3830   23.8880 C   0  0  0  0  0  3  0  0  0  0  0  0
  -27.5590  -37.2630   24.7150 C   0  0  0  0  0  1  0  0  0  0  0  0
  -26.4570  -37.4330   23.7720 N   0  0  0  0  0  0  0  0  0  0  0  0
  -26.0530  -38.3530   23.9210 H   0  0  0  0  0  0  0  0  0  0  0  0
  -26.3910  -31.7750   25.1530 C   0  0  1  0  0  0  0  0  0  0  0  0
  -25.3010  -31.5420   26.2230 C   0  0  0  0  0  1  0  0  0  0  0  0
  -26.9710  -30.3960   24.7610 C   0  0  0  0  0  1  0  0  0  0  0  0
  -27.5460  -32.5680   25.8100 C   0  0  0  0  0  1  0  0  0  0  0  0
  -29.4930  -16.7060   20.4220 C   0  0  0  0  0  2  0  0  0  0  0  0
  -30.0450  -15.6100   21.3620 C   0  0  0  0  0  2  0  0  0  0  0  0
  -30.6720  -14.4440   20.5790 C   0  0  0  0  0  0  0  0  0  0  0  0
  -30.3800  -12.3270   19.3490 C   0  0  0  0  0  2  0  0  0  0  0  0
  -29.4420  -12.5740   18.1470 C   0  0  0  0  0  2  0  0  0  0  0  0
  -27.9600  -12.4370   18.5580 C   0  0  0  0  0  2  0  0  0  0  0  0
  -27.6230  -13.2340   19.8460 C   0  0  0  0  0  3  0  0  0  0  0  0
  -28.6690  -12.9420   20.9450 C   0  0  0  0  0  2  0  0  0  0  0  0
  -30.0020  -13.2700   20.4100 N   0  0  0  0  0  0  0  0  0  0  0  0
  -31.7560  -14.6710   20.0320 O   0  0  0  0  0  0  0  0  0  0  0  0
  -25.2110  -13.8450   20.5150 C   0  0  0  0  0  0  0  0  0  0  0  0
  -24.1420  -13.0740   20.8800 C   0  0  0  0  0  0  0  0  0  0  0  0
  -24.6070  -11.7220   20.8650 C   0  0  0  0  0  0  0  0  0  0  0  0
  -26.2610  -12.9650   20.3060 N   0  0  0  0  0  0  0  0  0  0  0  0
  -25.9000  -11.6840   20.5690 N   0  0  0  0  0  0  0  0  0  0  0  0
  -23.8840  -10.4600   21.0590 C   0  0  0  0  0  0  0  0  0  0  0  0
  -24.3260   -9.4920   21.9870 C   0  0  0  0  0  3  0  0  0  0  0  0
  -23.6030   -8.2920   22.1680 C   0  0  0  0  0  3  0  0  0  0  0  0
  -22.4270   -8.0530   21.4180 C   0  0  0  0  0  0  0  0  0  0  0  0
  -22.0060   -9.0100   20.4770 C   0  0  0  0  0  3  0  0  0  0  0  0
  -22.7290  -10.2000   20.2960 C   0  0  0  0  0  3  0  0  0  0  0  0
  -21.6750   -6.9060   21.5090 O   0  0  0  0  0  0  0  0  0  0  0  0
  -21.6480   -6.1520   22.6550 C   0  0  0  0  0  0  0  0  0  0  0  0
  -21.2630   -6.6970   23.8990 C   0  0  0  0  0  3  0  0  0  0  0  0
  -21.1830   -5.8690   25.0360 C   0  0  0  0  0  3  0  0  0  0  0  0
  -21.4790   -4.4970   24.9310 C   0  0  0  0  0  0  0  0  0  0  0  0
  -21.8600   -3.9510   23.6920 C   0  0  0  0  0  3  0  0  0  0  0  0
  -21.9410   -4.7770   22.5570 C   0  0  0  0  0  0  0  0  0  0  0  0
  -22.2870   -4.2420   21.3600 F   0  0  0  0  0  0  0  0  0  0  0  0
  -21.3960   -3.6990   26.0210 F   0  0  0  0  0  0  0  0  0  0  0  0
  -22.7390  -13.5470   21.1350 C   0  0  0  0  0  0  0  0  0  0  0  0
  -22.0080  -12.8530   22.0010 N   0  0  0  0  0  0  0  0  0  0  0  0
  -22.3010  -14.5660   20.6040 O   0  0  0  0  0  0  0  0  0  0  0  0
  -22.3780  -12.0290   22.4520 H   0  0  0  0  0  0  0  0  0  0  0  0
  -21.0650  -13.1490   22.2120 H   0  0  0  0  0  0  0  0  0  0  0  0
  -25.3750  -15.2140   20.3260 N   0  0  0  0  0  0  0  0  0  0  0  0
  -24.6040  -15.8690   20.4130 H   0  0  0  0  0  0  0  0  0  0  0  0
  -26.2210  -15.6480   19.9840 H   0  0  0  0  0  0  0  0  0  0  0  0
  2  1  1  0
  3  6  1  0
  3  7  1  0
  4  1  1  0
  5  2  1  0
  7 11  1  0
  9 13  1  0
  9  4  1  0
 10  6  1  6
 10  5  1  0
 10  9  1  0
 10  8  1  0
 11 12  1  1
 11 60  1  0
 11  8  1  0
 14 16  1  0
 14 13  2  0
 15 14  1  0
 16 17  1  0
 17 18  1  0
 19 21  1  0
 19 18  1  0
 20 31  2  0
 21 26  1  0
 22 30  1  0
 22 32  1  0
 23 29  1  0
 23 25  1  0
 24 30  1  0
 25 24  1  0
 26 25  2  0
 27 28  1  0
 27 21  2  0
 28 23  2  0
 29 22  1  0
 30 20  1  0
 32 34  2  0
 33 32  1  0
 35 33  1  0
 36 45  2  0
 36 41  1  0
 37 33  1  0
 37 41  1  0
 38 37  1  0
 39 40  1  0
 39 38  1  0
 40 36  1  0
 41 42  2  0
 42 43  1  0
 44 43  2  0
 45 44  1  0
 46 20  1  0
 46 47  1  0
 46 56  1  0
 47 50  1  0
 48 52  1  0
 48 47  1  0
 49 48  2  0
 52 51  1  0
 54 52  1  0
 54 55  1  0
 54 53  1  0
 56 59  1  1
 56 57  1  0
 58 56  1  0
 60 61  1  0
 62 61  1  0
 63 68  1  0
 64 65  1  0
 64 63  1  0
 66 65  1  0
 66 73  1  0
 66 67  1  0
 68 62  1  0
 68 67  1  0
 69 62  2  0
 70 71  2  0
 71 90  1  0
 72 71  1  0
 72 75  1  0
 73 70  1  0
 73 74  1  0
 74 72  2  0
 75 76  1  0
 76 77  2  0
 78 81  1  0
 78 77  1  0
 79 78  2  0
 80 79  1  0
 80 75  2  0
 81 82  1  0
 82 83  1  0
 83 84  2  0
 85 84  1  0
 85 89  1  0
 86 85  2  0
 87 82  2  0
 87 86  1  0
 88 87  1  0
 90 91  1  0
 91 94  1  0
 91 93  1  0
 92 90  2  0
 95 96  1  0
 95 70  1  0
 97 95  1  0
M  ISO  4  18 101  19 101  61 100  62 100
M  END
>  <TORSDO>  (89) 
F 22

>  <SCORE>  (89) 
-13.408

>  <name>  (89) 
88

>  <ligand_id>  (89) 
88

>  <original_smiles>  (89) 
[H]C(=C(C([H])([H])[H])C([H])([H])C([H])([H])C([H])([H])Oc1c([H])c([H])c2c(c1[H])C([H])([H])N(C(=O)C([H])(N([H])C(=O)C([H])(N([H])C([H])([H])[H])C([H])([H])[H])C(C([H])([H])[H])(C([H])([H])[H])C([H])([H])[H])C([H])(C(=O)N([H])C1([H])c3c([H])c([H])c([H])c([H])c3C([H])([H])C([H])([H])C1([H])[H])C2([H])[H])C1([H])C([H])([H])C([H])([H])C([H])([H])C([H])([H])C12C([H])([H])C([H])([H])C([H])([H])[N+]([H])(C([H])([H])C([H])([H])C(=O)N1C([H])([H])C([H])([H])C([H])([H])C([H])(n3nc(-c4c([H])c([H])c(Oc5c([H])c([H])c(F)c([H])c5F)c([H])c4[H])c(C(=O)N([H])[H])c3N([H])[H])C1([H])[H])C2([H])[H]

>  <smiles>  (89) 
[H]C(=C(C([H])([H])[H])C([H])([H])C([H])([H])C([H])([H])Oc1c([H])c([H])c2c(c1[H])C([H])([H])N(C(=O)C([H])(N([H])C(=O)C([H])(N([H])C([H])([H])[H])C([H])([H])[H])C(C([H])([H])[H])(C([H])([H])[H])C([H])([H])[H])C([H])(C(=O)N([H])C1([H])c3c([H])c([H])c([H])c([H])c3C([H])([H])C([H])([H])C1([H])[H])C2([H])[H])C1([H])C([H])([H])C([H])([H])C([H])([H])C([H])([H])C12C([H])([H])C([H])([H])C([H])([H])[N+]([H])(C([H])([H])C([H])([H])C(=O)N1C([H])([H])C([H])([H])C([H])([H])C([H])(n3nc(-c4c([H])c([H])c(Oc5c([H])c([H])c(F)c([H])c5F)c([H])c4[H])c(C(=O)N([H])[H])c3N([H])[H])C1([H])[H])C2([H])[H]

$$$$
89:0:0
     RDKit          3D

 94102  0  0  1  0  0  0  0  0999 V2000
  -29.5860  -21.6120   17.3050 C   0  0  0  0  0  3  0  0  0  0  0  0
  -29.8320  -22.9640   17.0170 C   0  0  0  0  0  3  0  0  0  0  0  0
  -29.3500  -22.1540   19.6630 C   0  0  0  0  0  3  0  0  0  0  0  0
  -29.3400  -21.1850   18.6270 C   0  0  0  0  0  0  0  0  0  0  0  0
  -29.8250  -23.9310   18.0420 C   0  0  0  0  0  0  0  0  0  0  0  0
  -29.5850  -23.5300   19.3820 C   0  0  0  0  0  0  0  0  0  0  0  0
  -30.0590  -25.3850   17.6650 C   0  0  0  0  0  1  0  0  0  0  0  0
  -28.9600  -19.7410   18.8540 C   0  0  0  0  0  0  0  0  0  0  0  0
  -29.5710  -19.0400   19.8260 N   0  0  0  0  0  0  0  0  0  0  0  0
  -28.1410  -19.2130   18.0950 O   0  0  0  0  0  0  0  0  0  0  0  0
  -30.2610  -19.5080   20.3960 H   0  0  0  0  0  0  0  0  0  0  0  0
  -29.3340  -17.5990   20.0140 C   0  0  0  0  0  2  0  0  0  0  0  0
  -30.2250  -16.9250   21.0810 C   0  0  0  0  0  2  0  0  0  0  0  0
  -30.6510  -14.5000   20.5560 C   0  0  0  0  0  0  0  0  0  0  0  0
  -30.3740  -12.3630   19.3590 C   0  0  0  0  0  2  0  0  0  0  0  0
  -29.4400  -12.6030   18.1550 C   0  0  0  0  0  2  0  0  0  0  0  0
  -27.9620  -12.4530   18.5660 C   0  0  0  0  0  2  0  0  0  0  0  0
  -27.6160  -13.2480   19.8530 C   0  0  0  0  0  3  0  0  0  0  0  0
  -28.6650  -12.9980   20.9620 C   0  0  0  0  0  2  0  0  0  0  0  0
  -29.9950  -13.3170   20.4110 N   0  0  0  0  0  0  0  0  0  0  0  0
  -31.7560  -14.7210   20.0540 O   0  0  0  0  0  0  0  0  0  0  0  0
  -29.9450  -15.4810   21.1460 N   0  0  0  0  0  0  0  0  0  0  0  0
  -29.0590  -15.2100   21.5470 H   0  0  0  0  0  0  0  0  0  0  0  0
  -25.2030  -13.8270   20.5310 C   0  0  0  0  0  0  0  0  0  0  0  0
  -24.1400  -13.0430   20.8910 C   0  0  0  0  0  0  0  0  0  0  0  0
  -24.6170  -11.6960   20.8670 C   0  0  0  0  0  0  0  0  0  0  0  0
  -26.2610  -12.9570   20.3150 N   0  0  0  0  0  0  0  0  0  0  0  0
  -25.9100  -11.6720   20.5710 N   0  0  0  0  0  0  0  0  0  0  0  0
  -23.9030  -10.4280   21.0540 C   0  0  0  0  0  0  0  0  0  0  0  0
  -24.3360   -9.4700   21.9960 C   0  0  0  0  0  3  0  0  0  0  0  0
  -23.6260   -8.2630   22.1700 C   0  0  0  0  0  3  0  0  0  0  0  0
  -22.4680   -8.0050   21.4000 C   0  0  0  0  0  0  0  0  0  0  0  0
  -22.0520   -8.9520   20.4480 C   0  0  0  0  0  3  0  0  0  0  0  0
  -22.7620  -10.1500   20.2720 C   0  0  0  0  0  3  0  0  0  0  0  0
  -21.7280   -6.8500   21.4830 O   0  0  0  0  0  0  0  0  0  0  0  0
  -21.6730   -6.1130   22.6370 C   0  0  0  0  0  0  0  0  0  0  0  0
  -21.2100   -6.6630   23.8530 C   0  0  0  0  0  3  0  0  0  0  0  0
  -21.1030   -5.8500   24.9980 C   0  0  0  0  0  3  0  0  0  0  0  0
  -21.4500   -4.4870   24.9300 C   0  0  0  0  0  0  0  0  0  0  0  0
  -21.9060   -3.9360   23.7190 C   0  0  0  0  0  3  0  0  0  0  0  0
  -22.0150   -4.7470   22.5760 C   0  0  0  0  0  0  0  0  0  0  0  0
  -22.4340   -4.2060   21.4070 F   0  0  0  0  0  0  0  0  0  0  0  0
  -21.3400   -3.7020   26.0270 F   0  0  0  0  0  0  0  0  0  0  0  0
  -22.7360  -13.5050   21.1520 C   0  0  0  0  0  0  0  0  0  0  0  0
  -22.0090  -12.8000   22.0120 N   0  0  0  0  0  0  0  0  0  0  0  0
  -22.2910  -14.5260   20.6310 O   0  0  0  0  0  0  0  0  0  0  0  0
  -22.3790  -11.9730   22.4550 H   0  0  0  0  0  0  0  0  0  0  0  0
  -21.0660  -13.0910   22.2280 H   0  0  0  0  0  0  0  0  0  0  0  0
  -25.3550  -15.1980   20.3520 N   0  0  0  0  0  0  0  0  0  0  0  0
  -24.5760  -15.8420   20.4350 H   0  0  0  0  0  0  0  0  0  0  0  0
  -26.1990  -15.6390   20.0080 H   0  0  0  0  0  0  0  0  0  0  0  0
  -29.5930  -24.5450   20.5330 C   0  0  0  0  0  2  0  0  0  0  0  0
  -28.3140  -25.4060   20.6810 C   0  0  0  0  0  2  0  0  0  0  0  0
  -28.4340  -26.7320   20.1340 O   0  0  0  0  0  0  0  0  0  0  0  0
  -24.6020  -31.8940   23.2410 C   0  0  0  0  0  0  0  0  0  0  0  0
  -27.2670  -27.4680   20.1460 C   0  0  0  0  0  0  0  0  0  0  0  0
  -23.4050  -30.4890   21.5990 C   0  0  0  0  0  3  0  0  0  0  0  0
  -24.8660  -28.9640   20.1680 C   0  0  0  0  0  0  0  0  0  0  0  0
  -25.9310  -30.8570   21.4060 C   0  0  0  0  0  2  0  0  0  0  0  0
  -26.0230  -29.4900   20.7570 C   0  0  0  0  0  0  0  0  0  0  0  0
  -27.2300  -28.7510   20.7390 C   0  0  0  0  0  3  0  0  0  0  0  0
  -26.0940  -26.9600   19.5470 C   0  0  0  0  0  3  0  0  0  0  0  0
  -24.8970  -27.6980   19.5600 C   0  0  0  0  0  3  0  0  0  0  0  0
  -23.6170  -29.8160   20.2180 C   0  0  0  0  0  2  0  0  0  0  0  0
  -24.6660  -31.0900   22.1430 N   0  0  0  0  0  0  0  0  0  0  0  0
  -23.5150  -32.1840   23.7590 O   0  0  0  0  0  0  0  0  0  0  0  0
  -22.7570  -29.4590   22.5540 C   0  0  0  0  0  0  0  0  0  0  0  0
  -21.4330  -29.2760   22.4270 N   0  0  0  0  0  0  0  0  0  0  0  0
  -23.4430  -28.8300   23.3630 O   0  0  0  0  0  0  0  0  0  0  0  0
  -20.9420  -29.8370   21.7470 H   0  0  0  0  0  0  0  0  0  0  0  0
  -18.0580  -28.0840   22.9260 C   0  0  0  0  0  0  0  0  0  0  0  0
  -20.6180  -28.3320   23.1900 C   0  0  0  0  0  3  0  0  0  0  0  0
  -20.7140  -26.9060   22.5970 C   0  0  0  0  0  2  0  0  0  0  0  0
  -19.6060  -26.5980   21.5850 C   0  0  0  0  0  2  0  0  0  0  0  0
  -18.2280  -26.7400   22.2360 C   0  0  0  0  0  2  0  0  0  0  0  0
  -19.1820  -28.8370   23.3600 C   0  0  0  0  0  0  0  0  0  0  0  0
  -18.9690  -30.0950   23.9640 C   0  0  0  0  0  3  0  0  0  0  0  0
  -17.6660  -30.5990   24.1400 C   0  0  0  0  0  3  0  0  0  0  0  0
  -16.5580  -29.8430   23.7210 C   0  0  0  0  0  3  0  0  0  0  0  0
  -16.7560  -28.5860   23.1210 C   0  0  0  0  0  3  0  0  0  0  0  0
  -25.8870  -32.5190   23.8740 C   0  0  0  0  0  3  0  0  0  0  0  0
  -25.5790  -33.9170   24.2040 N   0  0  0  0  0  0  0  0  0  0  0  0
  -25.9100  -34.9670   23.4410 C   0  0  0  0  0  0  0  0  0  0  0  0
  -26.5790  -34.8610   22.4090 O   0  0  0  0  0  0  0  0  0  0  0  0
  -24.9840  -34.0730   25.0030 H   0  0  0  0  0  0  0  0  0  0  0  0
  -24.1780  -36.7550   23.0790 C   0  0  0  0  0  1  0  0  0  0  0  0
  -25.4200  -36.3550   23.8940 C   0  0  0  0  0  3  0  0  0  0  0  0
  -27.5500  -37.2440   24.7270 C   0  0  0  0  0  1  0  0  0  0  0  0
  -26.4510  -37.4100   23.7810 N   0  0  0  0  0  0  0  0  0  0  0  0
  -26.0430  -38.3290   23.9250 H   0  0  0  0  0  0  0  0  0  0  0  0
  -26.3980  -31.7450   25.1510 C   0  0  1  0  0  0  0  0  0  0  0  0
  -25.3000  -31.5040   26.2120 C   0  0  0  0  0  1  0  0  0  0  0  0
  -26.9840  -30.3700   24.7550 C   0  0  0  0  0  1  0  0  0  0  0  0
  -27.5460  -32.5380   25.8200 C   0  0  0  0  0  1  0  0  0  0  0  0
  1  4  1  0
  2  1  2  0
  2  5  1  0
  4  8  1  0
  4  3  2  0
  5  6  2  0
  6  3  1  0
  6 52  1  0
  7  5  1  0
  8  9  1  0
  9 12  1  0
  9 11  1  0
 10  8  2  0
 12 13  1  0
 13 22  1  0
 14 22  1  0
 15 20  1  0
 16 17  1  0
 16 15  1  0
 18 17  1  0
 18 27  1  0
 18 19  1  0
 20 14  1  0
 20 19  1  0
 21 14  2  0
 22 23  1  0
 24 25  2  0
 25 44  1  0
 26 25  1  0
 26 29  1  0
 27 24  1  0
 27 28  1  0
 28 26  2  0
 29 30  1  0
 30 31  2  0
 32 35  1  0
 32 31  1  0
 33 32  2  0
 34 33  1  0
 34 29  2  0
 35 36  1  0
 36 37  1  0
 37 38  2  0
 39 38  1  0
 39 43  1  0
 40 39  2  0
 41 36  2  0
 41 40  1  0
 42 41  1  0
 44 45  1  0
 45 48  1  0
 45 47  1  0
 46 44  2  0
 49 50  1  0
 49 24  1  0
 51 49  1  0
 52 53  1  0
 54 56  1  0
 54 53  1  0
 55 66  2  0
 56 61  1  0
 57 65  1  0
 57 67  1  0
 58 64  1  0
 58 60  1  0
 59 65  1  0
 60 59  1  0
 61 60  2  0
 62 63  1  0
 62 56  2  0
 63 58  2  0
 64 57  1  0
 65 55  1  0
 67 69  2  0
 68 67  1  0
 70 68  1  0
 71 80  2  0
 71 76  1  0
 72 68  1  0
 72 76  1  0
 73 72  1  0
 74 75  1  0
 74 73  1  0
 75 71  1  0
 76 77  2  0
 77 78  1  0
 79 78  2  0
 80 79  1  0
 81 55  1  0
 81 82  1  0
 81 91  1  0
 82 85  1  0
 83 87  1  0
 83 82  1  0
 84 83  2  0
 87 86  1  0
 89 87  1  0
 89 90  1  0
 89 88  1  0
 91 94  1  1
 91 92  1  0
 93 91  1  0
M  ISO  4  14 100  22 100  53 101  54 101
M  END
>  <TORSDO>  (90) 
F 21

>  <SCORE>  (90) 
-13.552

>  <name>  (90) 
89

>  <ligand_id>  (90) 
89

>  <original_smiles>  (90) 
[H]c1c([H])c([H])c2c(c1[H])C([H])([H])C([H])([H])C([H])([H])C2([H])N([H])C(=O)C1([H])N(C(=O)C([H])(N([H])C(=O)C([H])(N([H])C([H])([H])[H])C([H])([H])[H])C(C([H])([H])[H])(C([H])([H])[H])C([H])([H])[H])C([H])([H])c2c([H])c(OC([H])([H])C([H])([H])c3c([H])c(C(=O)N([H])C([H])([H])C([H])([H])N([H])C(=O)N4C([H])([H])C([H])([H])C([H])([H])C([H])(n5nc(-c6c([H])c([H])c(Oc7c([H])c([H])c(F)c([H])c7F)c([H])c6[H])c(C(=O)N([H])[H])c5N([H])[H])C4([H])[H])c([H])c([H])c3C([H])([H])[H])c([H])c([H])c2C1([H])[H]

>  <smiles>  (90) 
[H]c1c([H])c([H])c2c(c1[H])C([H])([H])C([H])([H])C([H])([H])C2([H])N([H])C(=O)C1([H])N(C(=O)C([H])(N([H])C(=O)C([H])(N([H])C([H])([H])[H])C([H])([H])[H])C(C([H])([H])[H])(C([H])([H])[H])C([H])([H])[H])C([H])([H])c2c([H])c(OC([H])([H])C([H])([H])c3c([H])c(C(=O)N([H])C([H])([H])C([H])([H])N([H])C(=O)N4C([H])([H])C([H])([H])C([H])([H])C([H])(n5nc(-c6c([H])c([H])c(Oc7c([H])c([H])c(F)c([H])c7F)c([H])c6[H])c(C(=O)N([H])[H])c5N([H])[H])C4([H])[H])c([H])c([H])c3C([H])([H])[H])c([H])c([H])c2C1([H])[H]

$$$$
90:0:0
     RDKit          3D

 94102  0  0  1  0  0  0  0  0999 V2000
  -30.3680  -22.2700   19.5540 C   0  0  0  0  0  0  0  0  0  0  0  0
  -29.7670  -23.4170   19.2080 N   0  0  0  0  0  0  0  0  0  0  0  0
  -30.9450  -22.1130   20.6320 O   0  0  0  0  0  0  0  0  0  0  0  0
  -29.3320  -23.4350   18.2950 H   0  0  0  0  0  0  0  0  0  0  0  0
  -30.0340  -18.9700   19.6500 C   0  0  0  0  0  0  0  0  0  0  0  0
  -32.5680  -20.8030   17.6480 C   0  0  0  0  0  2  0  0  0  0  0  0
  -31.2650  -21.5070   17.3120 C   0  0  0  0  0  2  0  0  0  0  0  0
  -32.1200  -19.5380   18.3800 C   0  0  0  0  0  2  0  0  0  0  0  0
  -30.3250  -21.1600   18.4830 C   0  0  0  0  0  3  0  0  0  0  0  0
  -30.7920  -19.8340   18.9310 N   0  0  0  0  0  0  0  0  0  0  0  0
  -28.9540  -19.3100   20.1420 O   0  0  0  0  0  0  0  0  0  0  0  0
  -30.4750  -17.4930   19.7720 C   0  0  0  0  0  2  0  0  0  0  0  0
  -30.3110  -16.8410   21.1720 C   0  0  0  0  0  2  0  0  0  0  0  0
  -30.6630  -14.4320   20.5170 C   0  0  0  0  0  0  0  0  0  0  0  0
  -30.3480  -12.3080   19.3090 C   0  0  0  0  0  2  0  0  0  0  0  0
  -29.4040  -12.5470   18.1140 C   0  0  0  0  0  2  0  0  0  0  0  0
  -27.9280  -12.4210   18.5420 C   0  0  0  0  0  2  0  0  0  0  0  0
  -27.6030  -13.2380   19.8220 C   0  0  0  0  0  3  0  0  0  0  0  0
  -28.6540  -12.9660   20.9220 C   0  0  0  0  0  2  0  0  0  0  0  0
  -29.9850  -13.2660   20.3620 N   0  0  0  0  0  0  0  0  0  0  0  0
  -31.7770  -14.6420   20.0270 O   0  0  0  0  0  0  0  0  0  0  0  0
  -29.9610  -15.4140   21.1050 N   0  0  0  0  0  0  0  0  0  0  0  0
  -29.0570  -15.1500   21.4680 H   0  0  0  0  0  0  0  0  0  0  0  0
  -25.2040  -13.8650   20.5170 C   0  0  0  0  0  0  0  0  0  0  0  0
  -24.1290  -13.1010   20.8850 C   0  0  0  0  0  0  0  0  0  0  0  0
  -24.5820  -11.7460   20.8580 C   0  0  0  0  0  0  0  0  0  0  0  0
  -26.2450  -12.9760   20.2930 N   0  0  0  0  0  0  0  0  0  0  0  0
  -25.8720  -11.6970   20.5530 N   0  0  0  0  0  0  0  0  0  0  0  0
  -23.8470  -10.4890   21.0470 C   0  0  0  0  0  0  0  0  0  0  0  0
  -24.2900   -9.5070   21.9610 C   0  0  0  0  0  3  0  0  0  0  0  0
  -23.5580   -8.3130   22.1400 C   0  0  0  0  0  3  0  0  0  0  0  0
  -22.3690   -8.0930   21.4050 C   0  0  0  0  0  0  0  0  0  0  0  0
  -21.9450   -9.0640   20.4790 C   0  0  0  0  0  3  0  0  0  0  0  0
  -22.6780  -10.2490   20.2990 C   0  0  0  0  0  3  0  0  0  0  0  0
  -21.6070   -6.9530   21.4930 O   0  0  0  0  0  0  0  0  0  0  0  0
  -21.5930   -6.1830   22.6290 C   0  0  0  0  0  0  0  0  0  0  0  0
  -21.2380   -6.7170   23.8870 C   0  0  0  0  0  3  0  0  0  0  0  0
  -21.1700   -5.8740   25.0140 C   0  0  0  0  0  3  0  0  0  0  0  0
  -21.4480   -4.5000   24.8850 C   0  0  0  0  0  0  0  0  0  0  0  0
  -21.7960   -3.9660   23.6330 C   0  0  0  0  0  3  0  0  0  0  0  0
  -21.8660   -4.8060   22.5070 C   0  0  0  0  0  0  0  0  0  0  0  0
  -22.1810   -4.2830   21.2980 F   0  0  0  0  0  0  0  0  0  0  0  0
  -21.3740   -3.6890   25.9670 F   0  0  0  0  0  0  0  0  0  0  0  0
  -22.7350  -13.5870   21.1550 C   0  0  0  0  0  0  0  0  0  0  0  0
  -22.0010  -12.8960   22.0210 N   0  0  0  0  0  0  0  0  0  0  0  0
  -22.3020  -14.6130   20.6300 O   0  0  0  0  0  0  0  0  0  0  0  0
  -22.3640  -12.0680   22.4690 H   0  0  0  0  0  0  0  0  0  0  0  0
  -21.0650  -13.2030   22.2420 H   0  0  0  0  0  0  0  0  0  0  0  0
  -25.3780  -15.2340   20.3370 N   0  0  0  0  0  0  0  0  0  0  0  0
  -24.6190  -15.8970   20.4460 H   0  0  0  0  0  0  0  0  0  0  0  0
  -26.2330  -15.6650   20.0060 H   0  0  0  0  0  0  0  0  0  0  0  0
  -29.7130  -24.6650   19.9670 C   0  0  0  0  0  2  0  0  0  0  0  0
  -28.3860  -25.3880   19.6810 C   0  0  0  0  0  2  0  0  0  0  0  0
  -28.4000  -26.7340   20.1610 O   0  0  0  0  0  0  0  0  0  0  0  0
  -24.6040  -31.8930   23.2470 C   0  0  0  0  0  0  0  0  0  0  0  0
  -27.2100  -27.4360   20.1480 C   0  0  0  0  0  0  0  0  0  0  0  0
  -23.3800  -30.4880   21.6240 C   0  0  0  0  0  3  0  0  0  0  0  0
  -24.8150  -28.9470   20.1880 C   0  0  0  0  0  0  0  0  0  0  0  0
  -25.9050  -30.8330   21.4090 C   0  0  0  0  0  2  0  0  0  0  0  0
  -25.9780  -29.4630   20.7680 C   0  0  0  0  0  0  0  0  0  0  0  0
  -27.1750  -28.7140   20.7510 C   0  0  0  0  0  3  0  0  0  0  0  0
  -26.0230  -26.9330   19.5620 C   0  0  0  0  0  3  0  0  0  0  0  0
  -24.8310  -27.6780   19.5840 C   0  0  0  0  0  3  0  0  0  0  0  0
  -23.5740  -29.8070   20.2430 C   0  0  0  0  0  2  0  0  0  0  0  0
  -24.6490  -31.0830   22.1530 N   0  0  0  0  0  0  0  0  0  0  0  0
  -23.5240  -32.1960   23.7730 O   0  0  0  0  0  0  0  0  0  0  0  0
  -22.7340  -29.4680   22.5890 C   0  0  0  0  0  0  0  0  0  0  0  0
  -21.4110  -29.2780   22.4620 N   0  0  0  0  0  0  0  0  0  0  0  0
  -23.4210  -28.8500   23.4080 O   0  0  0  0  0  0  0  0  0  0  0  0
  -20.9190  -29.8280   21.7700 H   0  0  0  0  0  0  0  0  0  0  0  0
  -18.0440  -28.0580   22.9400 C   0  0  0  0  0  0  0  0  0  0  0  0
  -20.5970  -28.3420   23.2360 C   0  0  0  0  0  3  0  0  0  0  0  0
  -20.7190  -26.9050   22.6770 C   0  0  0  0  0  2  0  0  0  0  0  0
  -19.6300  -26.5610   21.6550 C   0  0  0  0  0  2  0  0  0  0  0  0
  -18.2400  -26.7020   22.2850 C   0  0  0  0  0  2  0  0  0  0  0  0
  -19.1520  -28.8350   23.3730 C   0  0  0  0  0  0  0  0  0  0  0  0
  -18.9160  -30.1040   23.9450 C   0  0  0  0  0  3  0  0  0  0  0  0
  -17.6060  -30.5970   24.0900 C   0  0  0  0  0  3  0  0  0  0  0  0
  -16.5120  -29.8170   23.6750 C   0  0  0  0  0  3  0  0  0  0  0  0
  -16.7330  -28.5500   23.1060 C   0  0  0  0  0  3  0  0  0  0  0  0
  -25.9000  -32.5090   23.8640 C   0  0  0  0  0  3  0  0  0  0  0  0
  -25.6040  -33.9060   24.2030 N   0  0  0  0  0  0  0  0  0  0  0  0
  -25.9270  -34.9570   23.4380 C   0  0  0  0  0  0  0  0  0  0  0  0
  -26.5800  -34.8530   22.3950 O   0  0  0  0  0  0  0  0  0  0  0  0
  -25.0220  -34.0640   25.0120 H   0  0  0  0  0  0  0  0  0  0  0  0
  -24.1910  -36.7470   23.1140 C   0  0  0  0  0  1  0  0  0  0  0  0
  -25.4480  -36.3460   23.9010 C   0  0  0  0  0  3  0  0  0  0  0  0
  -27.6020  -37.2280   24.6840 C   0  0  0  0  0  1  0  0  0  0  0  0
  -26.4780  -37.3980   23.7650 N   0  0  0  0  0  0  0  0  0  0  0  0
  -26.0770  -38.3180   23.9230 H   0  0  0  0  0  0  0  0  0  0  0  0
  -26.4270  -31.7280   25.1300 C   0  0  1  0  0  0  0  0  0  0  0  0
  -25.3440  -31.4910   26.2070 C   0  0  0  0  0  1  0  0  0  0  0  0
  -27.0000  -30.3510   24.7240 C   0  0  0  0  0  1  0  0  0  0  0  0
  -27.5900  -32.5130   25.7830 C   0  0  0  0  0  1  0  0  0  0  0  0
  1  3  2  0
  2  1  1  0
  2 52  1  0
  4  2  1  0
  5 12  1  0
  5 11  2  0
  6  8  1  0
  7  6  1  0
  7  9  1  0
  8 10  1  0
  9 10  1  0
  9  1  1  0
 10  5  1  0
 12 13  1  0
 14 22  1  0
 15 20  1  0
 16 17  1  0
 16 15  1  0
 18 17  1  0
 18 27  1  0
 18 19  1  0
 20 14  1  0
 20 19  1  0
 21 14  2  0
 22 13  1  0
 22 23  1  0
 24 25  2  0
 25 44  1  0
 26 25  1  0
 26 29  1  0
 27 24  1  0
 27 28  1  0
 28 26  2  0
 29 30  1  0
 30 31  2  0
 32 35  1  0
 32 31  1  0
 33 32  2  0
 34 33  1  0
 34 29  2  0
 35 36  1  0
 36 37  1  0
 37 38  2  0
 39 38  1  0
 39 43  1  0
 40 39  2  0
 41 36  2  0
 41 40  1  0
 42 41  1  0
 44 45  1  0
 45 48  1  0
 45 47  1  0
 46 44  2  0
 49 50  1  0
 49 24  1  0
 51 49  1  0
 53 52  1  0
 53 54  1  0
 55 66  2  0
 56 54  1  0
 56 61  1  0
 57 65  1  0
 57 67  1  0
 58 64  1  0
 58 60  1  0
 59 65  1  0
 60 59  1  0
 61 60  2  0
 62 63  1  0
 62 56  2  0
 63 58  2  0
 64 57  1  0
 65 55  1  0
 67 69  2  0
 68 67  1  0
 70 68  1  0
 71 80  2  0
 71 76  1  0
 72 68  1  0
 72 76  1  0
 73 72  1  0
 74 75  1  0
 74 73  1  0
 75 71  1  0
 76 77  2  0
 77 78  1  0
 79 78  2  0
 80 79  1  0
 81 55  1  0
 81 82  1  0
 81 91  1  0
 82 85  1  0
 83 87  1  0
 83 82  1  0
 84 83  2  0
 87 86  1  0
 89 87  1  0
 89 90  1  0
 89 88  1  0
 91 94  1  1
 91 92  1  0
 93 91  1  0
M  ISO  4  14 100  22 100  53 101  54 101
M  END
>  <TORSDO>  (91) 
F 21

>  <SCORE>  (91) 
-13.528

>  <name>  (91) 
90

>  <ligand_id>  (91) 
90

>  <original_smiles>  (91) 
[H]c1c([H])c([H])c2c(c1[H])C([H])([H])C([H])([H])C([H])([H])C2([H])N([H])C(=O)C1([H])N(C(=O)C([H])(N([H])C(=O)C([H])(N([H])C([H])([H])[H])C([H])([H])[H])C(C([H])([H])[H])(C([H])([H])[H])C([H])([H])[H])C([H])([H])c2c([H])c(OC([H])([H])C([H])([H])N([H])C(=O)C3([H])N(C(=O)C([H])([H])C([H])([H])N([H])C(=O)N4C([H])([H])C([H])([H])C([H])([H])C([H])(n5nc(-c6c([H])c([H])c(Oc7c([H])c([H])c(F)c([H])c7F)c([H])c6[H])c(C(=O)N([H])[H])c5N([H])[H])C4([H])[H])C([H])([H])C([H])([H])C3([H])[H])c([H])c([H])c2C1([H])[H]

>  <smiles>  (91) 
[H]c1c([H])c([H])c2c(c1[H])C([H])([H])C([H])([H])C([H])([H])C2([H])N([H])C(=O)C1([H])N(C(=O)C([H])(N([H])C(=O)C([H])(N([H])C([H])([H])[H])C([H])([H])[H])C(C([H])([H])[H])(C([H])([H])[H])C([H])([H])[H])C([H])([H])c2c([H])c(OC([H])([H])C([H])([H])N([H])C(=O)C3([H])N(C(=O)C([H])([H])C([H])([H])N([H])C(=O)N4C([H])([H])C([H])([H])C([H])([H])C([H])(n5nc(-c6c([H])c([H])c(Oc7c([H])c([H])c(F)c([H])c7F)c([H])c6[H])c(C(=O)N([H])[H])c5N([H])[H])C4([H])[H])C([H])([H])C([H])([H])C3([H])[H])c([H])c([H])c2C1([H])[H]

$$$$
91:0:0
     RDKit          3D

 93102  0  0  1  0  0  0  0  0999 V2000
  -27.8340  -23.3870   20.3430 C   0  0  0  0  0  0  0  0  0  0  0  0
  -27.5740  -21.9010   20.5780 C   0  0  0  0  0  2  0  0  0  0  0  0
  -27.0550  -20.3150   18.6080 C   0  0  0  0  0  2  0  0  0  0  0  0
  -28.5720  -22.3650   18.4060 C   0  0  0  0  0  2  0  0  0  0  0  0
  -27.2390  -18.8960   19.1420 C   0  0  0  0  0  2  0  0  0  0  0  0
  -29.2220  -20.1550   19.6070 C   0  0  0  0  0  2  0  0  0  0  0  0
  -28.1100  -21.1920   19.3110 C   0  0  1  0  0  0  0  0  0  0  0  0
  -28.3910  -23.6150   19.1450 N   0  0  0  0  0  0  0  0  0  0  0  0
  -28.5630  -18.8300   19.8060 N   0  0  2  0  0  4  0  0  0  0  0  0
  -27.5070  -24.2380   21.1710 O   0  0  0  0  0  0  0  0  0  0  0  0
  -28.3520  -18.7430   20.7900 H   0  0  0  0  0  0  0  0  0  0  0  0
  -28.4240  -24.8730   18.3750 C   0  0  0  0  0  2  0  0  0  0  0  0
  -28.9910  -26.1710   19.0300 C   0  0  0  0  0  2  0  0  0  0  0  0
  -28.4030  -26.7380   20.2100 O   0  0  0  0  0  0  0  0  0  0  0  0
  -24.5940  -31.9260   23.2490 C   0  0  0  0  0  0  0  0  0  0  0  0
  -27.2400  -27.4810   20.1330 C   0  0  0  0  0  0  0  0  0  0  0  0
  -23.3880  -30.5180   21.6130 C   0  0  0  0  0  3  0  0  0  0  0  0
  -24.8370  -28.9830   20.1800 C   0  0  0  0  0  0  0  0  0  0  0  0
  -25.9140  -30.8720   21.4100 C   0  0  0  0  0  2  0  0  0  0  0  0
  -25.9950  -29.4990   20.7760 C   0  0  0  0  0  0  0  0  0  0  0  0
  -27.1910  -28.7490   20.7690 C   0  0  0  0  0  3  0  0  0  0  0  0
  -26.0670  -26.9860   19.5330 C   0  0  0  0  0  3  0  0  0  0  0  0
  -24.8680  -27.7210   19.5610 C   0  0  0  0  0  3  0  0  0  0  0  0
  -23.5980  -29.8450   20.2300 C   0  0  0  0  0  2  0  0  0  0  0  0
  -24.6520  -31.1200   22.1480 N   0  0  0  0  0  0  0  0  0  0  0  0
  -23.5120  -32.2170   23.7760 O   0  0  0  0  0  0  0  0  0  0  0  0
  -22.7400  -29.4980   22.5810 C   0  0  0  0  0  0  0  0  0  0  0  0
  -21.4170  -29.3060   22.4540 N   0  0  0  0  0  0  0  0  0  0  0  0
  -23.4260  -28.8780   23.3980 O   0  0  0  0  0  0  0  0  0  0  0  0
  -20.9230  -29.8670   21.7770 H   0  0  0  0  0  0  0  0  0  0  0  0
  -18.0450  -28.1330   22.9400 C   0  0  0  0  0  0  0  0  0  0  0  0
  -20.6010  -28.3770   23.2450 C   0  0  0  0  0  3  0  0  0  0  0  0
  -20.6890  -26.9350   22.6930 C   0  0  0  0  0  2  0  0  0  0  0  0
  -19.6180  -26.6490   21.6340 C   0  0  0  0  0  2  0  0  0  0  0  0
  -18.2160  -26.8000   22.2290 C   0  0  0  0  0  2  0  0  0  0  0  0
  -19.1630  -28.8830   23.3980 C   0  0  0  0  0  0  0  0  0  0  0  0
  -18.9440  -30.1360   24.0030 C   0  0  0  0  0  3  0  0  0  0  0  0
  -17.6390  -30.6490   24.1450 C   0  0  0  0  0  3  0  0  0  0  0  0
  -16.5360  -29.8950   23.7060 C   0  0  0  0  0  3  0  0  0  0  0  0
  -16.7420  -28.6350   23.1190 C   0  0  0  0  0  3  0  0  0  0  0  0
  -25.8830  -32.5430   23.8820 C   0  0  0  0  0  3  0  0  0  0  0  0
  -25.5790  -33.9440   24.2150 N   0  0  0  0  0  0  0  0  0  0  0  0
  -25.9090  -34.9930   23.4480 C   0  0  0  0  0  0  0  0  0  0  0  0
  -26.5800  -34.8860   22.4160 O   0  0  0  0  0  0  0  0  0  0  0  0
  -24.9850  -34.0990   25.0150 H   0  0  0  0  0  0  0  0  0  0  0  0
  -24.1790  -36.7840   23.0930 C   0  0  0  0  0  1  0  0  0  0  0  0
  -25.4250  -36.3850   23.8990 C   0  0  0  0  0  3  0  0  0  0  0  0
  -27.5690  -37.2690   24.7080 C   0  0  0  0  0  1  0  0  0  0  0  0
  -26.4610  -37.4340   23.7730 N   0  0  0  0  0  0  0  0  0  0  0  0
  -26.0620  -38.3580   23.9120 H   0  0  0  0  0  0  0  0  0  0  0  0
  -26.4030  -31.7630   25.1560 C   0  0  1  0  0  0  0  0  0  0  0  0
  -25.3120  -31.5140   26.2260 C   0  0  0  0  0  1  0  0  0  0  0  0
  -26.9870  -30.3920   24.7430 C   0  0  0  0  0  1  0  0  0  0  0  0
  -27.5620  -32.5530   25.8100 C   0  0  0  0  0  1  0  0  0  0  0  0
  -29.3590  -17.6180   19.4270 C   0  0  0  0  0  2  0  0  0  0  0  0
  -30.4430  -17.2000   20.4670 C   0  0  0  0  0  2  0  0  0  0  0  0
  -30.2400  -15.8120   21.1740 C   0  0  0  0  0  2  0  0  0  0  0  0
  -30.8940  -14.5750   20.4990 C   0  0  0  0  0  0  0  0  0  0  0  0
  -30.6050  -12.3890   19.3700 C   0  0  0  0  0  2  0  0  0  0  0  0
  -29.6970  -12.5930   18.1390 C   0  0  0  0  0  2  0  0  0  0  0  0
  -28.2130  -12.4740   18.5380 C   0  0  0  0  0  2  0  0  0  0  0  0
  -27.8590  -13.3240   19.7890 C   0  0  0  0  0  3  0  0  0  0  0  0
  -28.8880  -13.0990   20.9200 C   0  0  0  0  0  2  0  0  0  0  0  0
  -30.2220  -13.3940   20.3760 N   0  0  0  0  0  0  0  0  0  0  0  0
  -32.0140  -14.7320   20.0090 O   0  0  0  0  0  0  0  0  0  0  0  0
  -25.4480  -13.9610   20.4250 C   0  0  0  0  0  0  0  0  0  0  0  0
  -24.3650  -13.2040   20.7840 C   0  0  0  0  0  0  0  0  0  0  0  0
  -24.8160  -11.8510   20.7900 C   0  0  0  0  0  0  0  0  0  0  0  0
  -26.4920  -13.0660   20.2410 N   0  0  0  0  0  0  0  0  0  0  0  0
  -26.1140  -11.7920   20.5180 N   0  0  0  0  0  0  0  0  0  0  0  0
  -24.0790  -10.5970   20.9890 C   0  0  0  0  0  0  0  0  0  0  0  0
  -24.4900   -9.6410   21.9430 C   0  0  0  0  0  3  0  0  0  0  0  0
  -23.7520   -8.4520   22.1300 C   0  0  0  0  0  3  0  0  0  0  0  0
  -22.5900   -8.2100   21.3570 C   0  0  0  0  0  0  0  0  0  0  0  0
  -22.1990   -9.1550   20.3930 C   0  0  0  0  0  3  0  0  0  0  0  0
  -22.9360  -10.3350   20.2060 C   0  0  0  0  0  3  0  0  0  0  0  0
  -21.8260   -7.0720   21.4510 O   0  0  0  0  0  0  0  0  0  0  0  0
  -21.7600   -6.3430   22.6130 C   0  0  0  0  0  0  0  0  0  0  0  0
  -21.3340   -6.9200   23.8310 C   0  0  0  0  0  3  0  0  0  0  0  0
  -21.2100   -6.1160   24.9820 C   0  0  0  0  0  3  0  0  0  0  0  0
  -21.5070   -4.7430   24.9180 C   0  0  0  0  0  0  0  0  0  0  0  0
  -21.9240   -4.1660   23.7060 C   0  0  0  0  0  3  0  0  0  0  0  0
  -22.0480   -4.9660   22.5560 C   0  0  0  0  0  0  0  0  0  0  0  0
  -22.4320   -4.4020   21.3850 F   0  0  0  0  0  0  0  0  0  0  0  0
  -21.3800   -3.9710   26.0230 F   0  0  0  0  0  0  0  0  0  0  0  0
  -22.9650  -13.6990   21.0080 C   0  0  0  0  0  0  0  0  0  0  0  0
  -22.2150  -13.0250   21.8740 N   0  0  0  0  0  0  0  0  0  0  0  0
  -22.5410  -14.7120   20.4550 O   0  0  0  0  0  0  0  0  0  0  0  0
  -22.5700  -12.2060   22.3420 H   0  0  0  0  0  0  0  0  0  0  0  0
  -21.2740  -13.3330   22.0730 H   0  0  0  0  0  0  0  0  0  0  0  0
  -25.6330  -15.3250   20.2210 N   0  0  0  0  0  0  0  0  0  0  0  0
  -24.8710  -15.9930   20.2970 H   0  0  0  0  0  0  0  0  0  0  0  0
  -26.4990  -15.7290   19.8950 H   0  0  0  0  0  0  0  0  0  0  0  0
  1  2  1  0
  1 10  2  0
  3  5  1  0
  7  3  1  6
  4  8  1  0
  5  9  1  0
  6  9  1  0
  7  4  1  0
  7  6  1  0
  7  2  1  0
  8  1  1  0
  9 11  1  1
 12 13  1  0
 12  8  1  0
 13 14  1  0
 15 26  2  0
 16 14  1  0
 16 21  1  0
 17 25  1  0
 17 27  1  0
 18 24  1  0
 18 20  1  0
 19 25  1  0
 20 19  1  0
 21 20  2  0
 22 23  1  0
 22 16  2  0
 23 18  2  0
 24 17  1  0
 25 15  1  0
 27 29  2  0
 28 27  1  0
 30 28  1  0
 31 40  2  0
 31 36  1  0
 32 28  1  0
 32 36  1  0
 33 32  1  0
 34 35  1  0
 34 33  1  0
 35 31  1  0
 36 37  2  0
 37 38  1  0
 39 38  2  0
 40 39  1  0
 41 15  1  0
 41 42  1  0
 41 51  1  0
 42 45  1  0
 43 47  1  0
 43 42  1  0
 44 43  2  0
 47 46  1  0
 49 47  1  0
 49 50  1  0
 49 48  1  0
 51 54  1  1
 51 52  1  0
 53 51  1  0
 55  9  1  0
 55 56  1  0
 56 57  1  0
 58 57  1  0
 59 64  1  0
 60 61  1  0
 60 59  1  0
 62 61  1  0
 62 69  1  0
 62 63  1  0
 64 58  1  0
 64 63  1  0
 65 58  2  0
 66 67  2  0
 67 68  1  0
 67 86  1  0
 68 71  1  0
 69 66  1  0
 69 70  1  0
 70 68  2  0
 71 72  1  0
 72 73  2  0
 74 77  1  0
 74 73  1  0
 75 74  2  0
 76 75  1  0
 76 71  2  0
 77 78  1  0
 78 79  1  0
 79 80  2  0
 81 80  1  0
 81 85  1  0
 82 81  2  0
 83 78  2  0
 83 82  1  0
 84 83  1  0
 86 87  1  0
 87 90  1  0
 87 89  1  0
 88 86  2  0
 91 92  1  0
 91 66  1  0
 93 91  1  0
M  ISO  4  13 101  14 101  57 100  58 100
M  END
>  <TORSDO>  (92) 
F 21

>  <SCORE>  (92) 
-13.551

>  <name>  (92) 
91

>  <ligand_id>  (92) 
91

>  <original_smiles>  (92) 
[H]c1c([H])c([H])c2c(c1[H])C([H])([H])C([H])([H])C([H])([H])C2([H])N([H])C(=O)C1([H])N(C(=O)C([H])(N([H])C(=O)C([H])(N([H])C([H])([H])[H])C([H])([H])[H])C(C([H])([H])[H])(C([H])([H])[H])C([H])([H])[H])C([H])([H])c2c([H])c(OC([H])([H])C([H])([H])N3C(=O)C([H])([H])C4(C3([H])[H])C([H])([H])C([H])([H])[N+]([H])(C([H])([H])C([H])([H])C([H])([H])C(=O)N3C([H])([H])C([H])([H])C([H])([H])C([H])(n5nc(-c6c([H])c([H])c(Oc7c([H])c([H])c(F)c([H])c7F)c([H])c6[H])c(C(=O)N([H])[H])c5N([H])[H])C3([H])[H])C4([H])[H])c([H])c([H])c2C1([H])[H]

>  <smiles>  (92) 
[H]c1c([H])c([H])c2c(c1[H])C([H])([H])C([H])([H])C([H])([H])C2([H])N([H])C(=O)C1([H])N(C(=O)C([H])(N([H])C(=O)C([H])(N([H])C([H])([H])[H])C([H])([H])[H])C(C([H])([H])[H])(C([H])([H])[H])C([H])([H])[H])C([H])([H])c2c([H])c(OC([H])([H])C([H])([H])N3C(=O)C([H])([H])C4(C3([H])[H])C([H])([H])C([H])([H])[N+]([H])(C([H])([H])C([H])([H])C([H])([H])C(=O)N3C([H])([H])C([H])([H])C([H])([H])C([H])(n5nc(-c6c([H])c([H])c(Oc7c([H])c([H])c(F)c([H])c7F)c([H])c6[H])c(C(=O)N([H])[H])c5N([H])[H])C3([H])[H])C4([H])[H])c([H])c([H])c2C1([H])[H]

$$$$
92:0:0
     RDKit          3D

 93101  0  0  1  0  0  0  0  0999 V2000
  -29.1540  -22.6880   18.1710 N   0  0  0  0  0  4  0  0  0  0  0  0
  -28.2240  -22.3990   17.9150 H   0  0  0  0  0  0  0  0  0  0  0  0
  -29.7960  -22.1090   17.6580 H   0  0  0  0  0  0  0  0  0  0  0  0
  -29.5070  -24.2570   16.2670 C   0  0  0  0  0  1  0  0  0  0  0  0
  -29.4030  -24.0990   17.7960 C   0  0  0  0  0  3  0  0  0  0  0  0
  -28.3230  -25.0290   18.3840 C   0  0  0  0  0  2  0  0  0  0  0  0
  -28.8210  -26.4450   18.7090 C   0  0  0  0  0  2  0  0  0  0  0  0
  -28.4310  -26.8270   20.0260 O   0  0  0  0  0  0  0  0  0  0  0  0
  -24.6220  -31.8970   23.2360 C   0  0  0  0  0  0  0  0  0  0  0  0
  -27.2320  -27.4860   20.1090 C   0  0  0  0  0  0  0  0  0  0  0  0
  -23.3960  -30.4880   21.6160 C   0  0  0  0  0  3  0  0  0  0  0  0
  -24.8290  -28.9540   20.1800 C   0  0  0  0  0  0  0  0  0  0  0  0
  -25.9180  -30.8500   21.3900 C   0  0  0  0  0  2  0  0  0  0  0  0
  -25.9910  -29.4800   20.7580 C   0  0  0  0  0  0  0  0  0  0  0  0
  -27.1940  -28.7440   20.7380 C   0  0  0  0  0  3  0  0  0  0  0  0
  -26.0450  -26.9500   19.5620 C   0  0  0  0  0  3  0  0  0  0  0  0
  -24.8460  -27.6800   19.5890 C   0  0  0  0  0  3  0  0  0  0  0  0
  -23.5900  -29.8150   20.2330 C   0  0  0  0  0  2  0  0  0  0  0  0
  -24.6650  -31.0900   22.1410 N   0  0  0  0  0  0  0  0  0  0  0  0
  -23.5440  -32.1890   23.7700 O   0  0  0  0  0  0  0  0  0  0  0  0
  -22.7610  -29.4630   22.5810 C   0  0  0  0  0  0  0  0  0  0  0  0
  -21.4360  -29.2750   22.4630 N   0  0  0  0  0  0  0  0  0  0  0  0
  -23.4540  -28.8380   23.3890 O   0  0  0  0  0  0  0  0  0  0  0  0
  -20.9400  -29.8340   21.7850 H   0  0  0  0  0  0  0  0  0  0  0  0
  -18.0700  -28.0660   22.9670 C   0  0  0  0  0  0  0  0  0  0  0  0
  -20.6250  -28.3370   23.2400 C   0  0  0  0  0  3  0  0  0  0  0  0
  -20.7360  -26.9030   22.6720 C   0  0  0  0  0  2  0  0  0  0  0  0
  -19.6360  -26.5690   21.6590 C   0  0  0  0  0  2  0  0  0  0  0  0
  -18.2540  -26.7110   22.3040 C   0  0  0  0  0  2  0  0  0  0  0  0
  -19.1840  -28.8370   23.3930 C   0  0  0  0  0  0  0  0  0  0  0  0
  -18.9600  -30.1050   23.9730 C   0  0  0  0  0  3  0  0  0  0  0  0
  -17.6520  -30.6000   24.1340 C   0  0  0  0  0  3  0  0  0  0  0  0
  -16.5520  -29.8270   23.7230 C   0  0  0  0  0  3  0  0  0  0  0  0
  -16.7620  -28.5620   23.1460 C   0  0  0  0  0  3  0  0  0  0  0  0
  -25.9180  -32.5170   23.8480 C   0  0  0  0  0  3  0  0  0  0  0  0
  -25.6150  -33.9110   24.1920 N   0  0  0  0  0  0  0  0  0  0  0  0
  -25.9310  -34.9680   23.4300 C   0  0  0  0  0  0  0  0  0  0  0  0
  -26.5850  -34.8700   22.3880 O   0  0  0  0  0  0  0  0  0  0  0  0
  -25.0330  -34.0610   25.0040 H   0  0  0  0  0  0  0  0  0  0  0  0
  -24.1890  -36.7530   23.1130 C   0  0  0  0  0  1  0  0  0  0  0  0
  -25.4460  -36.3510   23.9010 C   0  0  0  0  0  3  0  0  0  0  0  0
  -27.5970  -37.2380   24.6890 C   0  0  0  0  0  1  0  0  0  0  0  0
  -26.4720  -37.4090   23.7710 N   0  0  0  0  0  0  0  0  0  0  0  0
  -26.0670  -38.3260   23.9350 H   0  0  0  0  0  0  0  0  0  0  0  0
  -26.4560  -31.7320   25.1050 C   0  0  1  0  0  0  0  0  0  0  0  0
  -25.3820  -31.4820   26.1890 C   0  0  0  0  0  1  0  0  0  0  0  0
  -27.0330  -30.3610   24.6840 C   0  0  0  0  0  1  0  0  0  0  0  0
  -27.6200  -32.5170   25.7540 C   0  0  0  0  0  1  0  0  0  0  0  0
  -29.3890  -22.3740   19.5980 C   0  0  0  0  0  2  0  0  0  0  0  0
  -29.1110  -18.6800   20.6470 C   0  0  0  0  0  3  0  0  0  0  0  0
  -31.0840  -18.9930   19.2480 C   0  0  0  0  0  3  0  0  0  0  0  0
  -28.8230  -20.0560   20.5190 C   0  0  0  0  0  3  0  0  0  0  0  0
  -30.8100  -20.3610   19.1370 C   0  0  0  0  0  3  0  0  0  0  0  0
  -30.2450  -18.1440   20.0000 C   0  0  0  0  0  0  0  0  0  0  0  0
  -29.6700  -20.8970   19.7620 C   0  0  0  0  0  0  0  0  0  0  0  0
  -30.6280  -16.7350   20.0360 C   0  0  0  0  0  3  0  0  0  0  0  0
  -30.0450  -15.6620   20.6190 C   0  0  0  0  0  3  0  0  0  0  0  0
  -30.7350  -14.3930   20.4120 C   0  0  0  0  0  0  0  0  0  0  0  0
  -30.3220  -12.2420   19.3430 C   0  0  0  0  0  2  0  0  0  0  0  0
  -29.4090  -12.4820   18.1240 C   0  0  0  0  0  2  0  0  0  0  0  0
  -27.9310  -12.3750   18.5460 C   0  0  0  0  0  2  0  0  0  0  0  0
  -27.5970  -13.2300   19.7990 C   0  0  0  0  0  3  0  0  0  0  0  0
  -28.6470  -13.0420   20.9160 C   0  0  0  0  0  2  0  0  0  0  0  0
  -29.9830  -13.2650   20.3450 N   0  0  0  0  0  0  0  0  0  0  0  0
  -31.9230  -14.3840   20.0810 O   0  0  0  0  0  0  0  0  0  0  0  0
  -25.2010  -13.8400   20.5100 C   0  0  0  0  0  0  0  0  0  0  0  0
  -24.1310  -13.0710   20.8820 C   0  0  0  0  0  0  0  0  0  0  0  0
  -24.5910  -11.7190   20.8610 C   0  0  0  0  0  0  0  0  0  0  0  0
  -26.2450  -12.9570   20.2840 N   0  0  0  0  0  0  0  0  0  0  0  0
  -25.8820  -11.6770   20.5550 N   0  0  0  0  0  0  0  0  0  0  0  0
  -23.8630  -10.4590   21.0590 C   0  0  0  0  0  0  0  0  0  0  0  0
  -24.3080   -9.4830   21.9790 C   0  0  0  0  0  3  0  0  0  0  0  0
  -23.5810   -8.2880   22.1660 C   0  0  0  0  0  3  0  0  0  0  0  0
  -22.3910   -8.0610   21.4330 C   0  0  0  0  0  0  0  0  0  0  0  0
  -21.9630   -9.0240   20.5020 C   0  0  0  0  0  3  0  0  0  0  0  0
  -22.6930  -10.2110   20.3140 C   0  0  0  0  0  3  0  0  0  0  0  0
  -21.6340   -6.9180   21.5290 O   0  0  0  0  0  0  0  0  0  0  0  0
  -21.6250   -6.1530   22.6690 C   0  0  0  0  0  0  0  0  0  0  0  0
  -21.2720   -6.6930   23.9250 C   0  0  0  0  0  3  0  0  0  0  0  0
  -21.2040   -5.8560   25.0560 C   0  0  0  0  0  3  0  0  0  0  0  0
  -21.4830   -4.4820   24.9340 C   0  0  0  0  0  0  0  0  0  0  0  0
  -21.8350   -3.9420   23.6830 C   0  0  0  0  0  3  0  0  0  0  0  0
  -21.9000   -4.7760   22.5530 C   0  0  0  0  0  0  0  0  0  0  0  0
  -22.2150   -4.2480   21.3450 F   0  0  0  0  0  0  0  0  0  0  0  0
  -21.4130   -3.6760   26.0180 F   0  0  0  0  0  0  0  0  0  0  0  0
  -22.7330  -13.5530   21.1450 C   0  0  0  0  0  0  0  0  0  0  0  0
  -22.0020  -12.8690   22.0170 N   0  0  0  0  0  0  0  0  0  0  0  0
  -22.2970  -14.5730   20.6130 O   0  0  0  0  0  0  0  0  0  0  0  0
  -22.3660  -12.0470   22.4770 H   0  0  0  0  0  0  0  0  0  0  0  0
  -21.0640  -13.1750   22.2330 H   0  0  0  0  0  0  0  0  0  0  0  0
  -25.3670  -15.2080   20.3240 N   0  0  0  0  0  0  0  0  0  0  0  0
  -24.6040  -15.8670   20.4390 H   0  0  0  0  0  0  0  0  0  0  0  0
  -26.2230  -15.6430   20.0010 H   0  0  0  0  0  0  0  0  0  0  0  0
  1 49  1  0
  2  1  1  0
  3  1  1  0
  5  4  1  0
  5  1  1  0
  5  6  1  0
  6  7  1  0
  7  8  1  0
  8 10  1  0
  9 20  2  0
 10 15  1  0
 11 19  1  0
 11 21  1  0
 12 18  1  0
 12 14  1  0
 13 19  1  0
 14 13  1  0
 15 14  2  0
 16 17  1  0
 16 10  2  0
 17 12  2  0
 18 11  1  0
 19  9  1  0
 21 23  2  0
 22 21  1  0
 24 22  1  0
 25 34  2  0
 25 30  1  0
 26 22  1  0
 26 30  1  0
 27 26  1  0
 28 29  1  0
 28 27  1  0
 29 25  1  0
 30 31  2  0
 31 32  1  0
 33 32  2  0
 34 33  1  0
 35  9  1  0
 35 36  1  0
 35 45  1  0
 36 39  1  0
 37 41  1  0
 37 36  1  0
 38 37  2  0
 41 40  1  0
 43 41  1  0
 43 44  1  0
 43 42  1  0
 45 48  1  1
 45 46  1  0
 47 45  1  0
 49 55  1  0
 51 54  1  0
 52 50  1  0
 53 51  2  0
 53 55  1  0
 54 56  1  0
 54 50  2  0
 55 52  2  0
 56 57  2  0
 58 57  1  0
 59 64  1  0
 60 61  1  0
 60 59  1  0
 62 61  1  0
 62 69  1  0
 62 63  1  0
 64 58  1  0
 64 63  1  0
 65 58  2  0
 66 67  2  0
 67 86  1  0
 68 67  1  0
 68 71  1  0
 69 66  1  0
 69 70  1  0
 70 68  2  0
 71 72  1  0
 72 73  2  0
 74 77  1  0
 74 73  1  0
 75 74  2  0
 76 75  1  0
 76 71  2  0
 77 78  1  0
 78 79  1  0
 79 80  2  0
 81 80  1  0
 81 85  1  0
 82 81  2  0
 83 78  2  0
 83 82  1  0
 84 83  1  0
 86 87  1  0
 87 90  1  0
 87 89  1  0
 88 86  2  0
 91 92  1  0
 91 66  1  0
 93 91  1  0
M  ISO  4   7 101   8 101  57 100  58 100
M  END
>  <TORSDO>  (93) 
F 22

>  <SCORE>  (93) 
-13.067

>  <name>  (93) 
92

>  <ligand_id>  (93) 
92

>  <original_smiles>  (93) 
[H]C(C(=O)N1C([H])([H])C([H])([H])C([H])([H])C([H])(n2nc(-c3c([H])c([H])c(Oc4c([H])c([H])c(F)c([H])c4F)c([H])c3[H])c(C(=O)N([H])[H])c2N([H])[H])C1([H])[H])=C([H])c1c([H])c([H])c(C([H])([H])[N+]([H])([H])C([H])(C([H])([H])[H])C([H])([H])C([H])([H])Oc2c([H])c([H])c3c(c2[H])C([H])([H])N(C(=O)C([H])(N([H])C(=O)C([H])(N([H])C([H])([H])[H])C([H])([H])[H])C(C([H])([H])[H])(C([H])([H])[H])C([H])([H])[H])C([H])(C(=O)N([H])C2([H])c4c([H])c([H])c([H])c([H])c4C([H])([H])C([H])([H])C2([H])[H])C3([H])[H])c([H])c1[H]

>  <smiles>  (93) 
[H]C(C(=O)N1C([H])([H])C([H])([H])C([H])([H])C([H])(n2nc(-c3c([H])c([H])c(Oc4c([H])c([H])c(F)c([H])c4F)c([H])c3[H])c(C(=O)N([H])[H])c2N([H])[H])C1([H])[H])=C([H])c1c([H])c([H])c(C([H])([H])[N+]([H])([H])C([H])(C([H])([H])[H])C([H])([H])C([H])([H])Oc2c([H])c([H])c3c(c2[H])C([H])([H])N(C(=O)C([H])(N([H])C(=O)C([H])(N([H])C([H])([H])[H])C([H])([H])[H])C(C([H])([H])[H])(C([H])([H])[H])C([H])([H])[H])C([H])(C(=O)N([H])C2([H])c4c([H])c([H])c([H])c([H])c4C([H])([H])C([H])([H])C2([H])[H])C3([H])[H])c([H])c1[H]

$$$$
93:0:0
     RDKit          3D

101111  0  0  1  0  0  0  0  0999 V2000
  -31.3650  -21.5670   17.3250 C   0  0  0  0  0  3  0  0  0  0  0  0
  -30.0750  -20.0790   19.3560 C   0  0  0  0  0  3  0  0  0  0  0  0
  -30.9250  -22.1840   18.5100 C   0  0  0  0  0  0  0  0  0  0  0  0
  -30.3330  -21.4480   19.5260 C   0  0  0  0  0  0  0  0  0  0  0  0
  -31.1090  -20.1890   17.1320 C   0  0  0  0  0  0  0  0  0  0  0  0
  -30.4050  -19.4520   18.1310 C   0  0  0  0  0  0  0  0  0  0  0  0
  -29.2200  -25.5970   18.3430 C   0  0  0  0  0  2  0  0  0  0  0  0
  -29.7520  -24.2390   17.8820 C   0  0  0  0  0  2  0  0  0  0  0  0
  -29.7130  -24.9610   20.7550 C   0  0  0  0  0  2  0  0  0  0  0  0
  -30.4860  -23.7020   20.3010 C   0  0  0  0  0  3  0  0  0  0  0  0
  -28.6630  -25.5060   19.7690 C   0  0  0  0  0  3  0  0  0  0  0  0
  -30.8710  -23.6660   18.7860 C   0  0  1  0  0  0  0  0  0  0  0  0
  -29.9280  -22.2940   20.7120 C   0  0  1  0  0  0  0  0  0  0  0  0
  -31.5460  -19.5610   15.8150 C   0  0  0  0  0  1  0  0  0  0  0  0
  -32.2190  -24.3680   18.5240 C   0  0  0  0  0  1  0  0  0  0  0  0
  -28.3900  -22.2370   20.8500 C   0  0  0  0  0  1  0  0  0  0  0  0
  -30.3190  -22.5320   23.2840 C   0  0  0  0  0  1  0  0  0  0  0  0
  -30.6130  -21.7490   21.9940 C   0  0  0  0  0  2  0  0  0  0  0  0
  -28.4380  -26.8310   20.2160 O   0  0  0  0  0  0  0  0  0  0  0  0
  -24.5740  -31.8740   23.2470 C   0  0  0  0  0  0  0  0  0  0  0  0
  -27.2120  -27.4470   20.1690 C   0  0  0  0  0  0  0  0  0  0  0  0
  -23.3520  -30.4620   21.6180 C   0  0  0  0  0  3  0  0  0  0  0  0
  -24.7970  -28.9110   20.1920 C   0  0  0  0  0  0  0  0  0  0  0  0
  -25.8710  -30.8230   21.4040 C   0  0  0  0  0  2  0  0  0  0  0  0
  -25.9490  -29.4510   20.7720 C   0  0  0  0  0  0  0  0  0  0  0  0
  -27.1510  -28.7230   20.7620 C   0  0  0  0  0  3  0  0  0  0  0  0
  -26.0430  -26.9040   19.5830 C   0  0  0  0  0  3  0  0  0  0  0  0
  -24.8360  -27.6330   19.6010 C   0  0  0  0  0  3  0  0  0  0  0  0
  -23.5520  -29.7680   20.2420 C   0  0  0  0  0  2  0  0  0  0  0  0
  -24.6180  -31.0650   22.1510 N   0  0  0  0  0  0  0  0  0  0  0  0
  -23.4940  -32.1730   23.7730 O   0  0  0  0  0  0  0  0  0  0  0  0
  -22.7060  -29.4480   22.5890 C   0  0  0  0  0  0  0  0  0  0  0  0
  -21.3830  -29.2640   22.4660 N   0  0  0  0  0  0  0  0  0  0  0  0
  -23.3950  -28.8260   23.4030 O   0  0  0  0  0  0  0  0  0  0  0  0
  -20.8910  -29.8190   21.7800 H   0  0  0  0  0  0  0  0  0  0  0  0
  -18.0140  -28.0630   22.9640 C   0  0  0  0  0  0  0  0  0  0  0  0
  -20.5700  -28.3300   23.2420 C   0  0  0  0  0  3  0  0  0  0  0  0
  -20.6800  -26.8950   22.6780 C   0  0  0  0  0  2  0  0  0  0  0  0
  -19.5820  -26.5620   21.6620 C   0  0  0  0  0  2  0  0  0  0  0  0
  -18.1970  -26.7090   22.2990 C   0  0  0  0  0  2  0  0  0  0  0  0
  -19.1290  -28.8310   23.3920 C   0  0  0  0  0  0  0  0  0  0  0  0
  -18.9070  -30.0990   23.9710 C   0  0  0  0  0  3  0  0  0  0  0  0
  -17.6000  -30.6010   24.1270 C   0  0  0  0  0  3  0  0  0  0  0  0
  -16.5000  -29.8310   23.7150 C   0  0  0  0  0  3  0  0  0  0  0  0
  -16.7060  -28.5640   23.1390 C   0  0  0  0  0  3  0  0  0  0  0  0
  -25.8690  -32.4910   23.8630 C   0  0  0  0  0  3  0  0  0  0  0  0
  -26.3990  -31.7140   25.1300 C   0  0  1  0  0  0  0  0  0  0  0  0
  -25.3150  -31.4770   26.2070 C   0  0  0  0  0  1  0  0  0  0  0  0
  -26.9730  -30.3360   24.7260 C   0  0  0  0  0  1  0  0  0  0  0  0
  -27.5600  -32.5000   25.7830 C   0  0  0  0  0  1  0  0  0  0  0  0
  -25.5750  -33.8900   24.1990 N   0  0  0  0  0  0  0  0  0  0  0  0
  -25.9040  -34.9400   23.4360 C   0  0  0  0  0  0  0  0  0  0  0  0
  -26.5640  -34.8340   22.3990 O   0  0  0  0  0  0  0  0  0  0  0  0
  -24.9920  -34.0480   25.0080 H   0  0  0  0  0  0  0  0  0  0  0  0
  -24.1750  -36.7330   23.0980 C   0  0  0  0  0  1  0  0  0  0  0  0
  -25.4250  -36.3290   23.8970 C   0  0  0  0  0  3  0  0  0  0  0  0
  -27.5720  -37.2070   24.7020 C   0  0  0  0  0  1  0  0  0  0  0  0
  -26.4580  -37.3800   23.7720 N   0  0  0  0  0  0  0  0  0  0  0  0
  -26.0570  -38.3020   23.9290 H   0  0  0  0  0  0  0  0  0  0  0  0
  -29.8590  -18.0530   17.8530 C   0  0  0  0  0  2  0  0  0  0  0  0
  -30.3290  -16.9030   18.7690 C   0  0  0  0  0  2  0  0  0  0  0  0
  -28.2210  -17.1290   20.2300 C   0  0  0  0  0  1  0  0  0  0  0  0
  -29.7250  -16.7780   20.1990 C   0  0  0  0  0  3  0  0  0  0  0  0
  -30.6520  -14.4100   20.4540 C   0  0  0  0  0  0  0  0  0  0  0  0
  -30.3600  -12.2610   19.3130 C   0  0  0  0  0  2  0  0  0  0  0  0
  -29.4150  -12.5200   18.1180 C   0  0  0  0  0  2  0  0  0  0  0  0
  -27.9370  -12.4090   18.5420 C   0  0  0  0  0  2  0  0  0  0  0  0
  -27.6140  -13.2160   19.8270 C   0  0  0  0  0  3  0  0  0  0  0  0
  -28.6680  -12.9390   20.9270 C   0  0  0  0  0  2  0  0  0  0  0  0
  -30.0060  -13.2190   20.3670 N   0  0  0  0  0  0  0  0  0  0  0  0
  -31.8010  -14.6070   20.0500 O   0  0  0  0  0  0  0  0  0  0  0  0
  -29.8090  -15.4130   20.7390 N   0  0  0  0  0  0  0  0  0  0  0  0
  -28.9420  -15.0740   21.1290 H   0  0  0  0  0  0  0  0  0  0  0  0
  -25.2090  -13.8530   20.5030 C   0  0  0  0  0  0  0  0  0  0  0  0
  -24.1340  -13.0890   20.8680 C   0  0  0  0  0  0  0  0  0  0  0  0
  -24.5880  -11.7340   20.8500 C   0  0  0  0  0  0  0  0  0  0  0  0
  -26.2530  -12.9630   20.2940 N   0  0  0  0  0  0  0  0  0  0  0  0
  -25.8810  -11.6850   20.5560 N   0  0  0  0  0  0  0  0  0  0  0  0
  -23.8550  -10.4770   21.0460 C   0  0  0  0  0  0  0  0  0  0  0  0
  -24.2880   -9.5050   21.9750 C   0  0  0  0  0  3  0  0  0  0  0  0
  -23.5560   -8.3100   22.1560 C   0  0  0  0  0  3  0  0  0  0  0  0
  -22.3760   -8.0830   21.4100 C   0  0  0  0  0  0  0  0  0  0  0  0
  -21.9590   -9.0450   20.4740 C   0  0  0  0  0  3  0  0  0  0  0  0
  -22.6900  -10.2290   20.2900 C   0  0  0  0  0  3  0  0  0  0  0  0
  -21.6100   -6.9440   21.5000 O   0  0  0  0  0  0  0  0  0  0  0  0
  -21.5790   -6.1910   22.6470 C   0  0  0  0  0  0  0  0  0  0  0  0
  -21.2010   -6.7400   23.8910 C   0  0  0  0  0  3  0  0  0  0  0  0
  -21.1170   -5.9140   25.0290 C   0  0  0  0  0  3  0  0  0  0  0  0
  -21.4000   -4.5390   24.9220 C   0  0  0  0  0  0  0  0  0  0  0  0
  -21.7720   -3.9890   23.6820 C   0  0  0  0  0  3  0  0  0  0  0  0
  -21.8600   -4.8140   22.5470 C   0  0  0  0  0  0  0  0  0  0  0  0
  -22.1990   -4.2750   21.3510 F   0  0  0  0  0  0  0  0  0  0  0  0
  -21.3130   -3.7430   26.0140 F   0  0  0  0  0  0  0  0  0  0  0  0
  -22.7350  -13.5740   21.1300 C   0  0  0  0  0  0  0  0  0  0  0  0
  -22.0000  -12.8860   21.9980 N   0  0  0  0  0  0  0  0  0  0  0  0
  -22.3030  -14.5960   20.5990 O   0  0  0  0  0  0  0  0  0  0  0  0
  -22.3670  -12.0590   22.4460 H   0  0  0  0  0  0  0  0  0  0  0  0
  -21.0650  -13.1940   22.2230 H   0  0  0  0  0  0  0  0  0  0  0  0
  -25.3780  -15.2230   20.3150 N   0  0  0  0  0  0  0  0  0  0  0  0
  -24.6080  -15.8780   20.3950 H   0  0  0  0  0  0  0  0  0  0  0  0
  -26.2260  -15.6600   19.9820 H   0  0  0  0  0  0  0  0  0  0  0  0
  1  3  1  0
  2  4  1  0
  3 12  1  0
  3  4  2  0
  4 13  1  0
  5  1  2  0
  5  6  1  0
  6  2  2  0
  7 11  1  0
  8  7  1  0
  8 12  1  0
 10 13  1  0
 10  9  1  0
 11 19  1  0
 11  9  1  0
 12 15  1  1
 12 10  1  0
 13 16  1  1
 13 18  1  0
 14  5  1  0
 18 17  1  0
 20 31  2  0
 21 19  1  0
 21 26  1  0
 22 30  1  0
 22 32  1  0
 23 29  1  0
 23 25  1  0
 24 30  1  0
 25 24  1  0
 26 25  2  0
 27 28  1  0
 27 21  2  0
 28 23  2  0
 29 22  1  0
 30 20  1  0
 32 34  2  0
 33 32  1  0
 35 33  1  0
 36 45  2  0
 36 41  1  0
 37 33  1  0
 37 41  1  0
 38 37  1  0
 39 40  1  0
 39 38  1  0
 40 36  1  0
 41 42  2  0
 42 43  1  0
 44 43  2  0
 45 44  1  0
 46 20  1  0
 46 51  1  0
 46 47  1  0
 47 50  1  1
 47 48  1  0
 49 47  1  0
 51 54  1  0
 52 56  1  0
 52 51  1  0
 53 52  2  0
 56 55  1  0
 58 56  1  0
 58 59  1  0
 58 57  1  0
 60  6  1  0
 60 61  1  0
 61 63  1  0
 63 62  1  0
 63 72  1  0
 64 72  1  0
 65 70  1  0
 66 67  1  0
 66 65  1  0
 68 67  1  0
 68 77  1  0
 68 69  1  0
 70 64  1  0
 70 69  1  0
 71 64  2  0
 72 73  1  0
 74 75  2  0
 75 94  1  0
 76 75  1  0
 76 79  1  0
 77 74  1  0
 77 78  1  0
 78 76  2  0
 79 80  1  0
 80 81  2  0
 82 85  1  0
 82 81  1  0
 83 82  2  0
 84 83  1  0
 84 79  2  0
 85 86  1  0
 86 87  1  0
 87 88  2  0
 89 88  1  0
 89 93  1  0
 90 89  2  0
 91 86  2  0
 91 90  1  0
 92 91  1  0
 94 95  1  0
 95 98  1  0
 95 97  1  0
 96 94  2  0
 99100  1  0
 99 74  1  0
101 99  1  0
M  ISO  4  11 101  19 101  64 100  72 100
M  END
>  <TORSDO>  (94) 
F 20

>  <SCORE>  (94) 
-14.262

>  <name>  (94) 
93

>  <ligand_id>  (94) 
93

>  <original_smiles>  (94) 
[H]c1c([H])c([H])c2c(c1[H])C([H])([H])C([H])([H])C([H])([H])C2([H])N([H])C(=O)C1([H])N(C(=O)C([H])(N([H])C(=O)C([H])(N([H])C([H])([H])[H])C([H])([H])[H])C(C([H])([H])[H])(C([H])([H])[H])C([H])([H])[H])C([H])([H])c2c([H])c(OC3([H])C([H])([H])C([H])([H])C4(C([H])([H])[H])c5c([H])c(C([H])([H])[H])c(C([H])([H])C([H])([H])C([H])(N([H])C(=O)N6C([H])([H])C([H])([H])C([H])([H])C([H])(n7nc(-c8c([H])c([H])c(Oc9c([H])c([H])c(F)c([H])c9F)c([H])c8[H])c(C(=O)N([H])[H])c7N([H])[H])C6([H])[H])C([H])([H])[H])c([H])c5C(C([H])([H])[H])(C([H])([H])C([H])([H])[H])C4([H])C3([H])[H])c([H])c([H])c2C1([H])[H]

>  <smiles>  (94) 
[H]c1c([H])c([H])c2c(c1[H])C([H])([H])C([H])([H])C([H])([H])C2([H])N([H])C(=O)C1([H])N(C(=O)C([H])(N([H])C(=O)C([H])(N([H])C([H])([H])[H])C([H])([H])[H])C(C([H])([H])[H])(C([H])([H])[H])C([H])([H])[H])C([H])([H])c2c([H])c(OC3([H])C([H])([H])C([H])([H])C4(C([H])([H])[H])c5c([H])c(C([H])([H])[H])c(C([H])([H])C([H])([H])C([H])(N([H])C(=O)N6C([H])([H])C([H])([H])C([H])([H])C([H])(n7nc(-c8c([H])c([H])c(Oc9c([H])c([H])c(F)c([H])c9F)c([H])c8[H])c(C(=O)N([H])[H])c7N([H])[H])C6([H])[H])C([H])([H])[H])c([H])c5C(C([H])([H])[H])(C([H])([H])C([H])([H])[H])C4([H])C3([H])[H])c([H])c([H])c2C1([H])[H]

$$$$
94:0:0
     RDKit          3D

 93102  0  0  1  0  0  0  0  0999 V2000
  -30.2710  -24.2740   16.9060 C   0  0  0  0  0  2  0  0  0  0  0  0
  -28.8030  -24.1650   17.3140 C   0  0  0  0  0  2  0  0  0  0  0  0
  -31.7920  -22.5250   17.9430 C   0  0  0  0  0  2  0  0  0  0  0  0
  -31.8910  -21.6870   19.2110 C   0  0  0  0  0  2  0  0  0  0  0  0
  -29.7850  -22.5740   20.1440 C   0  0  0  0  0  2  0  0  0  0  0  0
  -31.0580  -23.8580   18.1650 C   0  0  0  0  0  3  0  0  0  0  0  0
  -30.0500  -23.9170   19.3570 C   0  0  0  0  0  3  0  0  0  0  0  0
  -28.7850  -24.6180   18.7810 C   0  0  0  0  0  3  0  0  0  0  0  0
  -30.5200  -21.3640   19.6600 N   0  0  2  0  0  4  0  0  0  0  0  0
  -30.0460  -21.0640   18.8230 H   0  0  0  0  0  0  0  0  0  0  0  0
  -28.8440  -26.1780   18.8380 C   0  0  0  0  0  2  0  0  0  0  0  0
  -28.4660  -26.7610   20.0890 O   0  0  0  0  0  0  0  0  0  0  0  0
  -24.6520  -31.9070   23.2400 C   0  0  0  0  0  0  0  0  0  0  0  0
  -27.2820  -27.4720   20.1120 C   0  0  0  0  0  0  0  0  0  0  0  0
  -23.4350  -30.5030   21.6070 C   0  0  0  0  0  3  0  0  0  0  0  0
  -24.8770  -28.9630   20.1710 C   0  0  0  0  0  0  0  0  0  0  0  0
  -25.9610  -30.8520   21.4010 C   0  0  0  0  0  2  0  0  0  0  0  0
  -26.0380  -29.4840   20.7570 C   0  0  0  0  0  0  0  0  0  0  0  0
  -27.2390  -28.7390   20.7390 C   0  0  0  0  0  3  0  0  0  0  0  0
  -26.1000  -26.9560   19.5360 C   0  0  0  0  0  3  0  0  0  0  0  0
  -24.9000  -27.6930   19.5660 C   0  0  0  0  0  3  0  0  0  0  0  0
  -23.6360  -29.8270   20.2240 C   0  0  0  0  0  2  0  0  0  0  0  0
  -24.7010  -31.0990   22.1430 N   0  0  0  0  0  0  0  0  0  0  0  0
  -23.5700  -32.2040   23.7640 O   0  0  0  0  0  0  0  0  0  0  0  0
  -22.7880  -29.4800   22.5690 C   0  0  0  0  0  0  0  0  0  0  0  0
  -21.4640  -29.2930   22.4410 N   0  0  0  0  0  0  0  0  0  0  0  0
  -23.4730  -28.8590   23.3850 O   0  0  0  0  0  0  0  0  0  0  0  0
  -20.9730  -29.8480   21.7550 H   0  0  0  0  0  0  0  0  0  0  0  0
  -18.0960  -28.0850   22.9380 C   0  0  0  0  0  0  0  0  0  0  0  0
  -20.6520  -28.3510   23.2110 C   0  0  0  0  0  3  0  0  0  0  0  0
  -20.7600  -26.9220   22.6340 C   0  0  0  0  0  2  0  0  0  0  0  0
  -19.6590  -26.5950   21.6190 C   0  0  0  0  0  2  0  0  0  0  0  0
  -18.2770  -26.7370   22.2610 C   0  0  0  0  0  2  0  0  0  0  0  0
  -19.2110  -28.8500   23.3690 C   0  0  0  0  0  0  0  0  0  0  0  0
  -18.9880  -30.1120   23.9610 C   0  0  0  0  0  3  0  0  0  0  0  0
  -17.6820  -30.6100   24.1260 C   0  0  0  0  0  3  0  0  0  0  0  0
  -16.5800  -29.8420   23.7110 C   0  0  0  0  0  3  0  0  0  0  0  0
  -16.7880  -28.5810   23.1220 C   0  0  0  0  0  3  0  0  0  0  0  0
  -25.9450  -32.5220   23.8620 C   0  0  0  0  0  3  0  0  0  0  0  0
  -25.6470  -33.9200   24.2010 N   0  0  0  0  0  0  0  0  0  0  0  0
  -25.9690  -34.9730   23.4390 C   0  0  0  0  0  0  0  0  0  0  0  0
  -26.6240  -34.8710   22.3980 O   0  0  0  0  0  0  0  0  0  0  0  0
  -25.0650  -34.0740   25.0110 H   0  0  0  0  0  0  0  0  0  0  0  0
  -24.2350  -36.7650   23.1100 C   0  0  0  0  0  1  0  0  0  0  0  0
  -25.4860  -36.3600   23.9040 C   0  0  0  0  0  3  0  0  0  0  0  0
  -27.6290  -37.2430   24.7110 C   0  0  0  0  0  1  0  0  0  0  0  0
  -26.5160  -37.4130   23.7820 N   0  0  0  0  0  0  0  0  0  0  0  0
  -26.1120  -38.3330   23.9350 H   0  0  0  0  0  0  0  0  0  0  0  0
  -26.4670  -31.7430   25.1320 C   0  0  1  0  0  0  0  0  0  0  0  0
  -25.3790  -31.5030   26.2040 C   0  0  0  0  0  1  0  0  0  0  0  0
  -27.0460  -30.3660   24.7310 C   0  0  0  0  0  1  0  0  0  0  0  0
  -27.6220  -32.5310   25.7940 C   0  0  0  0  0  1  0  0  0  0  0  0
  -30.4900  -20.1860   20.5840 C   0  0  0  0  0  2  0  0  0  0  0  0
  -29.2890  -19.2380   20.3480 C   0  0  0  0  0  2  0  0  0  0  0  0
  -29.6220  -17.7300   20.1660 C   0  0  0  0  0  2  0  0  0  0  0  0
  -30.2760  -17.0210   21.3790 C   0  0  0  0  0  2  0  0  0  0  0  0
  -29.9510  -15.5050   21.5120 C   0  0  0  0  0  2  0  0  0  0  0  0
  -30.6590  -14.4860   20.5750 C   0  0  0  0  0  0  0  0  0  0  0  0
  -30.4430  -12.4000   19.2440 C   0  0  0  0  0  2  0  0  0  0  0  0
  -29.4740  -12.6230   18.0600 C   0  0  0  0  0  2  0  0  0  0  0  0
  -27.9970  -12.4820   18.4870 C   0  0  0  0  0  2  0  0  0  0  0  0
  -27.6690  -13.2570   19.7890 C   0  0  0  0  0  3  0  0  0  0  0  0
  -28.7180  -12.9210   20.8700 C   0  0  0  0  0  2  0  0  0  0  0  0
  -30.0370  -13.2980   20.3360 N   0  0  0  0  0  0  0  0  0  0  0  0
  -31.7390  -14.7790   20.0480 O   0  0  0  0  0  0  0  0  0  0  0  0
  -25.2560  -13.8790   20.4420 C   0  0  0  0  0  0  0  0  0  0  0  0
  -24.1810  -13.1110   20.8020 C   0  0  0  0  0  0  0  0  0  0  0  0
  -24.6410  -11.7590   20.7940 C   0  0  0  0  0  0  0  0  0  0  0  0
  -26.3060  -12.9930   20.2440 N   0  0  0  0  0  0  0  0  0  0  0  0
  -25.9350  -11.7140   20.5060 N   0  0  0  0  0  0  0  0  0  0  0  0
  -23.9110  -10.5010   20.9880 C   0  0  0  0  0  0  0  0  0  0  0  0
  -24.3320   -9.5450   21.9370 C   0  0  0  0  0  3  0  0  0  0  0  0
  -23.6070   -8.3470   22.1190 C   0  0  0  0  0  3  0  0  0  0  0  0
  -22.4480   -8.0970   21.3470 C   0  0  0  0  0  0  0  0  0  0  0  0
  -22.0500   -9.0390   20.3850 C   0  0  0  0  0  3  0  0  0  0  0  0
  -22.7740  -10.2290   20.2040 C   0  0  0  0  0  3  0  0  0  0  0  0
  -21.6960   -6.9500   21.4360 O   0  0  0  0  0  0  0  0  0  0  0  0
  -21.6260   -6.2220   22.5940 C   0  0  0  0  0  0  0  0  0  0  0  0
  -21.1690   -6.7900   23.8050 C   0  0  0  0  0  3  0  0  0  0  0  0
  -21.0550   -5.9870   24.9590 C   0  0  0  0  0  3  0  0  0  0  0  0
  -21.3840   -4.6190   24.9010 C   0  0  0  0  0  0  0  0  0  0  0  0
  -21.8320   -4.0500   23.6960 C   0  0  0  0  0  3  0  0  0  0  0  0
  -21.9540   -4.8500   22.5450 C   0  0  0  0  0  0  0  0  0  0  0  0
  -22.3690   -4.2950   21.3800 F   0  0  0  0  0  0  0  0  0  0  0  0
  -21.2650   -3.8460   26.0060 F   0  0  0  0  0  0  0  0  0  0  0  0
  -22.7800  -13.5920   21.0510 C   0  0  0  0  0  0  0  0  0  0  0  0
  -22.0410  -12.9000   21.9130 N   0  0  0  0  0  0  0  0  0  0  0  0
  -22.3480  -14.6130   20.5170 O   0  0  0  0  0  0  0  0  0  0  0  0
  -22.4050  -12.0760   22.3670 H   0  0  0  0  0  0  0  0  0  0  0  0
  -21.0980  -13.1980   22.1230 H   0  0  0  0  0  0  0  0  0  0  0  0
  -25.4280  -15.2470   20.2510 N   0  0  0  0  0  0  0  0  0  0  0  0
  -24.6610  -15.9090   20.3200 H   0  0  0  0  0  0  0  0  0  0  0  0
  -26.2990  -15.6710   19.9550 H   0  0  0  0  0  0  0  0  0  0  0  0
  1  2  1  0
  2  8  1  0
  3  6  1  0
  3  4  1  0
  4  9  1  0
  6  1  1  0
  6  7  1  0
  7  5  1  0
  8 11  1  0
  8  7  1  0
  9  5  1  0
  9 53  1  0
  9 10  1  6
 11 12  1  0
 12 14  1  0
 13 24  2  0
 14 19  1  0
 15 23  1  0
 15 25  1  0
 16 22  1  0
 16 18  1  0
 17 23  1  0
 18 17  1  0
 19 18  2  0
 20 21  1  0
 20 14  2  0
 21 16  2  0
 22 15  1  0
 23 13  1  0
 25 27  2  0
 26 25  1  0
 28 26  1  0
 29 38  2  0
 29 34  1  0
 30 26  1  0
 30 34  1  0
 31 30  1  0
 32 33  1  0
 32 31  1  0
 33 29  1  0
 34 35  2  0
 35 36  1  0
 37 36  2  0
 38 37  1  0
 39 13  1  0
 39 40  1  0
 39 49  1  0
 40 43  1  0
 41 45  1  0
 41 40  1  0
 42 41  2  0
 45 44  1  0
 47 45  1  0
 47 48  1  0
 47 46  1  0
 49 52  1  1
 49 50  1  0
 51 49  1  0
 54 53  1  0
 55 54  1  0
 55 56  1  0
 56 57  1  0
 58 57  1  0
 59 64  1  0
 60 61  1  0
 60 59  1  0
 62 61  1  0
 62 69  1  0
 62 63  1  0
 64 58  1  0
 64 63  1  0
 65 58  2  0
 66 67  2  0
 67 86  1  0
 68 67  1  0
 68 71  1  0
 69 66  1  0
 69 70  1  0
 70 68  2  0
 71 72  1  0
 72 73  2  0
 74 77  1  0
 74 73  1  0
 75 74  2  0
 76 75  1  0
 76 71  2  0
 77 78  1  0
 78 79  1  0
 79 80  2  0
 81 80  1  0
 81 85  1  0
 82 81  2  0
 83 78  2  0
 83 82  1  0
 84 83  1  0
 86 87  1  0
 87 90  1  0
 87 89  1  0
 88 86  2  0
 91 92  1  0
 91 66  1  0
 93 91  1  0
M  ISO  4  11 101  12 101  57 100  58 100
M  END
>  <TORSDO>  (95) 
F 22

>  <SCORE>  (95) 
-13.058

>  <name>  (95) 
94

>  <ligand_id>  (95) 
94

>  <original_smiles>  (95) 
[H]c1c([H])c([H])c2c(c1[H])C([H])([H])C([H])([H])C([H])([H])C2([H])N([H])C(=O)C1([H])N(C(=O)C([H])(N([H])C(=O)C([H])(N([H])C([H])([H])[H])C([H])([H])[H])C(C([H])([H])[H])(C([H])([H])[H])C([H])([H])[H])C([H])([H])c2c([H])c(OC([H])([H])C3([H])C([H])([H])C([H])([H])C4([H])C([H])([H])C([H])([H])[N+]([H])(C([H])([H])C([H])([H])C([H])([H])C([H])([H])C([H])([H])C(=O)N5C([H])([H])C([H])([H])C([H])([H])C([H])(n6nc(-c7c([H])c([H])c(Oc8c([H])c([H])c(F)c([H])c8F)c([H])c7[H])c(C(=O)N([H])[H])c6N([H])[H])C5([H])[H])C([H])([H])C34[H])c([H])c([H])c2C1([H])[H]

>  <smiles>  (95) 
[H]c1c([H])c([H])c2c(c1[H])C([H])([H])C([H])([H])C([H])([H])C2([H])N([H])C(=O)C1([H])N(C(=O)C([H])(N([H])C(=O)C([H])(N([H])C([H])([H])[H])C([H])([H])[H])C(C([H])([H])[H])(C([H])([H])[H])C([H])([H])[H])C([H])([H])c2c([H])c(OC([H])([H])C3([H])C([H])([H])C([H])([H])C4([H])C([H])([H])C([H])([H])[N+]([H])(C([H])([H])C([H])([H])C([H])([H])C([H])([H])C([H])([H])C(=O)N5C([H])([H])C([H])([H])C([H])([H])C([H])(n6nc(-c7c([H])c([H])c(Oc8c([H])c([H])c(F)c([H])c8F)c([H])c7[H])c(C(=O)N([H])[H])c6N([H])[H])C5([H])[H])C([H])([H])C34[H])c([H])c([H])c2C1([H])[H]

$$$$
95:0:0
     RDKit          3D

 93101  0  0  1  0  0  0  0  0999 V2000
  -27.7960  -23.8380   21.0460 C   0  0  0  0  0  3  0  0  0  0  0  0
  -28.6380  -24.1400   20.0070 C   0  0  0  0  0  0  0  0  0  0  0  0
  -29.4410  -22.9810   19.6400 C   0  0  0  0  0  0  0  0  0  0  0  0
  -29.2110  -21.8450   20.4160 C   0  0  0  0  0  0  0  0  0  0  0  0
  -30.4410  -23.0230   18.5130 C   0  0  0  0  0  1  0  0  0  0  0  0
  -27.9960  -22.2030   21.6230 S   0  0  0  0  0  0  0  0  0  0  0  0
  -31.0270  -20.3860   21.4060 C   0  0  0  0  0  1  0  0  0  0  0  0
  -29.8830  -20.4530   20.3800 C   0  0  0  0  0  3  0  0  0  0  0  0
  -28.9230  -19.3280   20.5940 N   0  0  0  0  0  4  0  0  0  0  0  0
  -28.6040  -19.3270   21.5490 H   0  0  0  0  0  0  0  0  0  0  0  0
  -28.1230  -19.5830   20.0390 H   0  0  0  0  0  0  0  0  0  0  0  0
  -29.2410  -17.9200   20.1560 C   0  0  0  0  0  2  0  0  0  0  0  0
  -30.0870  -17.0230   21.1300 C   0  0  0  0  0  2  0  0  0  0  0  0
  -30.6280  -14.5750   20.4860 C   0  0  0  0  0  0  0  0  0  0  0  0
  -30.4030  -12.4060   19.3220 C   0  0  0  0  0  2  0  0  0  0  0  0
  -29.4450  -12.5790   18.1230 C   0  0  0  0  0  2  0  0  0  0  0  0
  -27.9690  -12.4370   18.5530 C   0  0  0  0  0  2  0  0  0  0  0  0
  -27.6300  -13.2640   19.8220 C   0  0  0  0  0  3  0  0  0  0  0  0
  -28.6860  -13.0280   20.9230 C   0  0  0  0  0  2  0  0  0  0  0  0
  -30.0040  -13.3700   20.3590 N   0  0  0  0  0  0  0  0  0  0  0  0
  -31.7620  -14.7920   20.0480 O   0  0  0  0  0  0  0  0  0  0  0  0
  -29.8430  -15.5640   20.9720 N   0  0  0  0  0  0  0  0  0  0  0  0
  -28.9400  -15.2450   21.2890 H   0  0  0  0  0  0  0  0  0  0  0  0
  -25.2310  -13.8770   20.5190 C   0  0  0  0  0  0  0  0  0  0  0  0
  -24.1620  -13.1090   20.8920 C   0  0  0  0  0  0  0  0  0  0  0  0
  -24.6220  -11.7550   20.8640 C   0  0  0  0  0  0  0  0  0  0  0  0
  -26.2760  -12.9930   20.2950 N   0  0  0  0  0  0  0  0  0  0  0  0
  -25.9110  -11.7130   20.5590 N   0  0  0  0  0  0  0  0  0  0  0  0
  -23.8950  -10.4950   21.0570 C   0  0  0  0  0  0  0  0  0  0  0  0
  -24.3350   -9.5240   21.9850 C   0  0  0  0  0  3  0  0  0  0  0  0
  -23.6130   -8.3240   22.1630 C   0  0  0  0  0  3  0  0  0  0  0  0
  -22.4350   -8.0880   21.4140 C   0  0  0  0  0  0  0  0  0  0  0  0
  -22.0150   -9.0460   20.4750 C   0  0  0  0  0  3  0  0  0  0  0  0
  -22.7380  -10.2370   20.2940 C   0  0  0  0  0  3  0  0  0  0  0  0
  -21.6820   -6.9420   21.5030 O   0  0  0  0  0  0  0  0  0  0  0  0
  -21.6500   -6.1890   22.6490 C   0  0  0  0  0  0  0  0  0  0  0  0
  -21.2440   -6.7340   23.8870 C   0  0  0  0  0  3  0  0  0  0  0  0
  -21.1590   -5.9090   25.0260 C   0  0  0  0  0  3  0  0  0  0  0  0
  -21.4680   -4.5390   24.9290 C   0  0  0  0  0  0  0  0  0  0  0  0
  -21.8660   -3.9930   23.6950 C   0  0  0  0  0  3  0  0  0  0  0  0
  -21.9540   -4.8160   22.5590 C   0  0  0  0  0  0  0  0  0  0  0  0
  -22.3180   -4.2810   21.3680 F   0  0  0  0  0  0  0  0  0  0  0  0
  -21.3800   -3.7450   26.0200 F   0  0  0  0  0  0  0  0  0  0  0  0
  -22.7650  -13.5850   21.1610 C   0  0  0  0  0  0  0  0  0  0  0  0
  -22.0330  -12.8900   22.0240 N   0  0  0  0  0  0  0  0  0  0  0  0
  -22.3270  -14.6120   20.6400 O   0  0  0  0  0  0  0  0  0  0  0  0
  -22.3960  -12.0580   22.4660 H   0  0  0  0  0  0  0  0  0  0  0  0
  -21.0950  -13.1910   22.2490 H   0  0  0  0  0  0  0  0  0  0  0  0
  -25.4050  -15.2470   20.3300 N   0  0  0  0  0  0  0  0  0  0  0  0
  -24.6420  -15.9110   20.4190 H   0  0  0  0  0  0  0  0  0  0  0  0
  -26.2420  -15.6550   19.9380 H   0  0  0  0  0  0  0  0  0  0  0  0
  -28.6590  -25.5150   19.3100 C   0  0  0  0  0  2  0  0  0  0  0  0
  -28.4470  -26.6830   20.1530 O   0  0  0  0  0  0  0  0  0  0  0  0
  -24.6120  -31.8970   23.2200 C   0  0  0  0  0  0  0  0  0  0  0  0
  -27.2640  -27.4180   20.1270 C   0  0  0  0  0  0  0  0  0  0  0  0
  -23.4060  -30.4870   21.5890 C   0  0  0  0  0  3  0  0  0  0  0  0
  -24.8590  -28.9550   20.1560 C   0  0  0  0  0  0  0  0  0  0  0  0
  -25.9370  -30.8340   21.3970 C   0  0  0  0  0  2  0  0  0  0  0  0
  -26.0230  -29.4670   20.7430 C   0  0  0  0  0  0  0  0  0  0  0  0
  -27.2200  -28.7060   20.7270 C   0  0  0  0  0  3  0  0  0  0  0  0
  -26.0690  -26.9230   19.5560 C   0  0  0  0  0  3  0  0  0  0  0  0
  -24.8800  -27.6780   19.5650 C   0  0  0  0  0  3  0  0  0  0  0  0
  -23.6180  -29.8240   20.2040 C   0  0  0  0  0  2  0  0  0  0  0  0
  -24.6700  -31.0850   22.1260 N   0  0  0  0  0  0  0  0  0  0  0  0
  -23.5280  -32.1930   23.7360 O   0  0  0  0  0  0  0  0  0  0  0  0
  -22.7610  -29.4580   22.5480 C   0  0  0  0  0  0  0  0  0  0  0  0
  -21.4340  -29.2760   22.4260 N   0  0  0  0  0  0  0  0  0  0  0  0
  -23.4500  -28.8330   23.3580 O   0  0  0  0  0  0  0  0  0  0  0  0
  -20.9440  -29.8280   21.7380 H   0  0  0  0  0  0  0  0  0  0  0  0
  -18.0570  -28.0910   22.9290 C   0  0  0  0  0  0  0  0  0  0  0  0
  -20.6180  -28.3370   23.1950 C   0  0  0  0  0  3  0  0  0  0  0  0
  -20.7140  -26.9100   22.6050 C   0  0  0  0  0  2  0  0  0  0  0  0
  -19.6030  -26.6020   21.5980 C   0  0  0  0  0  2  0  0  0  0  0  0
  -18.2230  -26.7450   22.2450 C   0  0  0  0  0  2  0  0  0  0  0  0
  -19.1800  -28.8460   23.3590 C   0  0  0  0  0  0  0  0  0  0  0  0
  -18.9660  -30.1080   23.9560 C   0  0  0  0  0  3  0  0  0  0  0  0
  -17.6620  -30.6090   24.1340 C   0  0  0  0  0  3  0  0  0  0  0  0
  -16.5550  -29.8480   23.7230 C   0  0  0  0  0  3  0  0  0  0  0  0
  -16.7530  -28.5940   23.1190 C   0  0  0  0  0  3  0  0  0  0  0  0
  -25.9000  -32.5160   23.8490 C   0  0  0  0  0  3  0  0  0  0  0  0
  -25.5970  -33.9140   24.1830 N   0  0  0  0  0  0  0  0  0  0  0  0
  -25.9210  -34.9670   23.4240 C   0  0  0  0  0  0  0  0  0  0  0  0
  -26.5860  -34.8670   22.3890 O   0  0  0  0  0  0  0  0  0  0  0  0
  -25.0120  -34.0680   24.9910 H   0  0  0  0  0  0  0  0  0  0  0  0
  -24.1850  -36.7540   23.0850 C   0  0  0  0  0  1  0  0  0  0  0  0
  -25.4320  -36.3530   23.8870 C   0  0  0  0  0  3  0  0  0  0  0  0
  -27.5640  -37.2420   24.7090 C   0  0  0  0  0  1  0  0  0  0  0  0
  -26.4600  -37.4100   23.7700 N   0  0  0  0  0  0  0  0  0  0  0  0
  -26.0510  -38.3270   23.9300 H   0  0  0  0  0  0  0  0  0  0  0  0
  -26.4140  -31.7410   25.1250 C   0  0  1  0  0  0  0  0  0  0  0  0
  -25.3210  -31.4920   26.1920 C   0  0  0  0  0  1  0  0  0  0  0  0
  -26.9990  -30.3690   24.7210 C   0  0  0  0  0  1  0  0  0  0  0  0
  -27.5670  -32.5330   25.7860 C   0  0  0  0  0  1  0  0  0  0  0  0
  1  6  1  0
  2  1  2  0
  3  2  1  0
  3  4  2  0
  4  6  1  0
  5  3  1  0
  8  4  1  0
  8  9  1  0
  8  7  1  0
  9 10  1  0
 11  9  1  0
 12  9  1  0
 12 13  1  0
 14 22  1  0
 15 20  1  0
 16 17  1  0
 16 15  1  0
 18 17  1  0
 18 27  1  0
 18 19  1  0
 20 14  1  0
 20 19  1  0
 21 14  2  0
 22 13  1  0
 22 23  1  0
 24 25  2  0
 25 44  1  0
 26 25  1  0
 26 29  1  0
 27 24  1  0
 27 28  1  0
 28 26  2  0
 29 30  1  0
 30 31  2  0
 32 35  1  0
 32 31  1  0
 33 32  2  0
 34 33  1  0
 34 29  2  0
 35 36  1  0
 36 37  1  0
 37 38  2  0
 39 38  1  0
 39 43  1  0
 40 39  2  0
 41 36  2  0
 41 40  1  0
 42 41  1  0
 44 45  1  0
 45 48  1  0
 45 47  1  0
 46 44  2  0
 49 50  1  0
 49 24  1  0
 51 49  1  0
 52  2  1  0
 52 53  1  0
 54 65  2  0
 55 53  1  0
 55 60  1  0
 56 64  1  0
 56 66  1  0
 57 63  1  0
 57 59  1  0
 58 64  1  0
 59 58  1  0
 60 59  2  0
 61 62  1  0
 61 55  2  0
 62 57  2  0
 63 56  1  0
 64 54  1  0
 66 68  2  0
 67 66  1  0
 69 67  1  0
 70 79  2  0
 70 75  1  0
 71 67  1  0
 71 75  1  0
 72 71  1  0
 73 74  1  0
 73 72  1  0
 74 70  1  0
 75 76  2  0
 76 77  1  0
 78 77  2  0
 79 78  1  0
 80 54  1  0
 80 81  1  0
 80 90  1  0
 81 84  1  0
 82 86  1  0
 82 81  1  0
 83 82  2  0
 86 85  1  0
 88 86  1  0
 88 89  1  0
 88 87  1  0
 90 93  1  1
 90 91  1  0
 92 90  1  0
M  ISO  4  14 100  22 100  52 101  53 101
M  END
>  <TORSDO>  (96) 
F 21

>  <SCORE>  (96) 
-13.713

>  <name>  (96) 
95

>  <ligand_id>  (96) 
95

>  <original_smiles>  (96) 
[H]c1sc(C([H])(C([H])([H])[H])[N+]([H])([H])C([H])([H])C([H])([H])N([H])C(=O)N2C([H])([H])C([H])([H])C([H])([H])C([H])(n3nc(-c4c([H])c([H])c(Oc5c([H])c([H])c(F)c([H])c5F)c([H])c4[H])c(C(=O)N([H])[H])c3N([H])[H])C2([H])[H])c(C([H])([H])[H])c1C([H])([H])Oc1c([H])c([H])c2c(c1[H])C([H])([H])N(C(=O)C([H])(N([H])C(=O)C([H])(N([H])C([H])([H])[H])C([H])([H])[H])C(C([H])([H])[H])(C([H])([H])[H])C([H])([H])[H])C([H])(C(=O)N([H])C1([H])c3c([H])c([H])c([H])c([H])c3C([H])([H])C([H])([H])C1([H])[H])C2([H])[H]

>  <smiles>  (96) 
[H]c1sc(C([H])(C([H])([H])[H])[N+]([H])([H])C([H])([H])C([H])([H])N([H])C(=O)N2C([H])([H])C([H])([H])C([H])([H])C([H])(n3nc(-c4c([H])c([H])c(Oc5c([H])c([H])c(F)c([H])c5F)c([H])c4[H])c(C(=O)N([H])[H])c3N([H])[H])C2([H])[H])c(C([H])([H])[H])c1C([H])([H])Oc1c([H])c([H])c2c(c1[H])C([H])([H])N(C(=O)C([H])(N([H])C(=O)C([H])(N([H])C([H])([H])[H])C([H])([H])[H])C(C([H])([H])[H])(C([H])([H])[H])C([H])([H])[H])C([H])(C(=O)N([H])C1([H])c3c([H])c([H])c([H])c([H])c3C([H])([H])C([H])([H])C1([H])[H])C2([H])[H]

$$$$
96:0:0
     RDKit          3D

 94102  0  0  1  0  0  0  0  0999 V2000
  -28.7050  -23.5180   18.4180 C   0  0  0  0  0  3  0  0  0  0  0  0
  -27.4410  -23.2280   20.4870 C   0  0  0  0  0  3  0  0  0  0  0  0
  -28.8860  -24.8780   18.7180 C   0  0  0  0  0  3  0  0  0  0  0  0
  -27.6410  -24.5840   20.7970 C   0  0  0  0  0  3  0  0  0  0  0  0
  -27.9610  -22.6940   19.2930 C   0  0  0  0  0  0  0  0  0  0  0  0
  -28.3290  -25.4200   19.8920 C   0  0  0  0  0  0  0  0  0  0  0  0
  -27.7160  -21.3520   18.9970 N   0  0  0  0  0  0  0  0  0  0  0  0
  -27.1050  -20.8720   19.6540 H   0  0  0  0  0  0  0  0  0  0  0  0
  -28.8650  -20.5800   18.5440 C   0  0  0  0  0  2  0  0  0  0  0  0
  -28.9370  -19.2350   19.2730 C   0  0  0  0  0  2  0  0  0  0  0  0
  -30.1460  -18.4850   18.8910 N   0  0  0  0  0  4  0  0  0  0  0  0
  -30.9640  -18.9250   19.2780 H   0  0  0  0  0  0  0  0  0  0  0  0
  -30.2250  -18.5300   17.8870 H   0  0  0  0  0  0  0  0  0  0  0  0
  -30.1120  -17.0590   19.2610 C   0  0  0  0  0  2  0  0  0  0  0  0
  -30.2380  -16.8030   20.7860 C   0  0  0  0  0  2  0  0  0  0  0  0
  -30.7220  -14.3860   20.6100 C   0  0  0  0  0  0  0  0  0  0  0  0
  -30.4080  -12.2680   19.4180 C   0  0  0  0  0  2  0  0  0  0  0  0
  -29.4970  -12.5220   18.1980 C   0  0  0  0  0  2  0  0  0  0  0  0
  -28.0100  -12.4120   18.5910 C   0  0  0  0  0  2  0  0  0  0  0  0
  -27.6600  -13.2340   19.8590 C   0  0  0  0  0  3  0  0  0  0  0  0
  -28.6810  -12.9620   20.9880 C   0  0  0  0  0  2  0  0  0  0  0  0
  -30.0330  -13.2300   20.4620 N   0  0  0  0  0  0  0  0  0  0  0  0
  -31.8440  -14.5860   20.1370 O   0  0  0  0  0  0  0  0  0  0  0  0
  -29.9990  -15.3970   21.0990 N   0  0  0  0  0  0  0  0  0  0  0  0
  -29.1000  -15.1580   21.4910 H   0  0  0  0  0  0  0  0  0  0  0  0
  -25.2400  -13.8730   20.4710 C   0  0  0  0  0  0  0  0  0  0  0  0
  -24.1560  -13.1130   20.8230 C   0  0  0  0  0  0  0  0  0  0  0  0
  -24.6100  -11.7590   20.8340 C   0  0  0  0  0  0  0  0  0  0  0  0
  -26.2880  -12.9820   20.2950 N   0  0  0  0  0  0  0  0  0  0  0  0
  -25.9090  -11.7060   20.5680 N   0  0  0  0  0  0  0  0  0  0  0  0
  -23.8720  -10.5050   21.0290 C   0  0  0  0  0  0  0  0  0  0  0  0
  -24.2890   -9.5420   21.9740 C   0  0  0  0  0  3  0  0  0  0  0  0
  -23.5530   -8.3510   22.1550 C   0  0  0  0  0  3  0  0  0  0  0  0
  -22.3860   -8.1150   21.3900 C   0  0  0  0  0  0  0  0  0  0  0  0
  -21.9880   -9.0660   20.4340 C   0  0  0  0  0  3  0  0  0  0  0  0
  -22.7250  -10.2480   20.2510 C   0  0  0  0  0  3  0  0  0  0  0  0
  -21.6230   -6.9760   21.4790 O   0  0  0  0  0  0  0  0  0  0  0  0
  -21.5740   -6.2310   22.6310 C   0  0  0  0  0  0  0  0  0  0  0  0
  -21.1770   -6.7920   23.8640 C   0  0  0  0  0  3  0  0  0  0  0  0
  -21.0730   -5.9750   25.0080 C   0  0  0  0  0  3  0  0  0  0  0  0
  -21.3580   -4.6000   24.9190 C   0  0  0  0  0  0  0  0  0  0  0  0
  -21.7480   -4.0380   23.6920 C   0  0  0  0  0  3  0  0  0  0  0  0
  -21.8530   -4.8530   22.5500 C   0  0  0  0  0  0  0  0  0  0  0  0
  -22.2100   -4.3030   21.3640 F   0  0  0  0  0  0  0  0  0  0  0  0
  -21.2510   -3.8140   26.0160 F   0  0  0  0  0  0  0  0  0  0  0  0
  -22.7540  -13.6030   21.0440 C   0  0  0  0  0  0  0  0  0  0  0  0
  -22.0000  -12.9280   21.9050 N   0  0  0  0  0  0  0  0  0  0  0  0
  -22.3340  -14.6180   20.4900 O   0  0  0  0  0  0  0  0  0  0  0  0
  -22.3500  -12.1050   22.3730 H   0  0  0  0  0  0  0  0  0  0  0  0
  -21.0570  -13.2370   22.0980 H   0  0  0  0  0  0  0  0  0  0  0  0
  -25.4190  -15.2390   20.2710 N   0  0  0  0  0  0  0  0  0  0  0  0
  -24.6560  -15.9020   20.3430 H   0  0  0  0  0  0  0  0  0  0  0  0
  -26.2860  -15.6640   19.9670 H   0  0  0  0  0  0  0  0  0  0  0  0
  -28.3900  -26.7710   20.0980 O   0  0  0  0  0  0  0  0  0  0  0  0
  -24.5970  -31.8910   23.2270 C   0  0  0  0  0  0  0  0  0  0  0  0
  -27.2040  -27.4720   20.1100 C   0  0  0  0  0  0  0  0  0  0  0  0
  -23.3690  -30.4860   21.6040 C   0  0  0  0  0  3  0  0  0  0  0  0
  -24.8040  -28.9550   20.1610 C   0  0  0  0  0  0  0  0  0  0  0  0
  -25.8910  -30.8470   21.3780 C   0  0  0  0  0  2  0  0  0  0  0  0
  -25.9660  -29.4790   20.7400 C   0  0  0  0  0  0  0  0  0  0  0  0
  -27.1670  -28.7400   20.7230 C   0  0  0  0  0  3  0  0  0  0  0  0
  -26.0240  -26.9630   19.5150 C   0  0  0  0  0  3  0  0  0  0  0  0
  -24.8230  -27.6920   19.5500 C   0  0  0  0  0  3  0  0  0  0  0  0
  -23.5610  -29.8110   20.2200 C   0  0  0  0  0  2  0  0  0  0  0  0
  -24.6380  -31.0850   22.1300 N   0  0  0  0  0  0  0  0  0  0  0  0
  -23.5180  -32.1840   23.7610 O   0  0  0  0  0  0  0  0  0  0  0  0
  -22.7320  -29.4610   22.5690 C   0  0  0  0  0  0  0  0  0  0  0  0
  -21.4080  -29.2760   22.4510 N   0  0  0  0  0  0  0  0  0  0  0  0
  -23.4250  -28.8360   23.3770 O   0  0  0  0  0  0  0  0  0  0  0  0
  -20.9120  -29.8310   21.7690 H   0  0  0  0  0  0  0  0  0  0  0  0
  -18.0410  -28.0750   22.9670 C   0  0  0  0  0  0  0  0  0  0  0  0
  -20.5990  -28.3380   23.2290 C   0  0  0  0  0  3  0  0  0  0  0  0
  -20.7020  -26.9060   22.6560 C   0  0  0  0  0  2  0  0  0  0  0  0
  -19.5970  -26.5780   21.6480 C   0  0  0  0  0  2  0  0  0  0  0  0
  -18.2180  -26.7220   22.2970 C   0  0  0  0  0  2  0  0  0  0  0  0
  -19.1600  -28.8400   23.3910 C   0  0  0  0  0  0  0  0  0  0  0  0
  -18.9420  -30.1060   23.9770 C   0  0  0  0  0  3  0  0  0  0  0  0
  -17.6380  -30.6070   24.1440 C   0  0  0  0  0  3  0  0  0  0  0  0
  -16.5330  -29.8380   23.7390 C   0  0  0  0  0  3  0  0  0  0  0  0
  -16.7350  -28.5750   23.1560 C   0  0  0  0  0  3  0  0  0  0  0  0
  -25.8930  -32.5110   23.8380 C   0  0  0  0  0  3  0  0  0  0  0  0
  -25.5940  -33.9060   24.1810 N   0  0  0  0  0  0  0  0  0  0  0  0
  -25.9100  -34.9590   23.4150 C   0  0  0  0  0  0  0  0  0  0  0  0
  -26.5610  -34.8590   22.3730 O   0  0  0  0  0  0  0  0  0  0  0  0
  -25.0150  -34.0580   24.9940 H   0  0  0  0  0  0  0  0  0  0  0  0
  -24.1680  -36.7440   23.0960 C   0  0  0  0  0  1  0  0  0  0  0  0
  -25.4250  -36.3450   23.8840 C   0  0  0  0  0  3  0  0  0  0  0  0
  -27.5750  -37.2320   24.6710 C   0  0  0  0  0  1  0  0  0  0  0  0
  -26.4530  -37.4010   23.7530 N   0  0  0  0  0  0  0  0  0  0  0  0
  -26.0480  -38.3190   23.9110 H   0  0  0  0  0  0  0  0  0  0  0  0
  -26.4280  -31.7280   25.1000 C   0  0  1  0  0  0  0  0  0  0  0  0
  -25.3520  -31.4820   26.1820 C   0  0  0  0  0  1  0  0  0  0  0  0
  -27.0040  -30.3530   24.6860 C   0  0  0  0  0  1  0  0  0  0  0  0
  -27.5900  -32.5140   25.7530 C   0  0  0  0  0  1  0  0  0  0  0  0
  1  3  2  0
  1  5  1  0
  2  4  1  0
  3  6  1  0
  5  2  2  0
  6 54  1  0
  6  4  2  0
  7  5  1  0
  7  8  1  0
  9  7  1  0
  9 10  1  0
 11 14  1  0
 11 10  1  0
 11 12  1  0
 13 11  1  0
 14 15  1  0
 15 24  1  0
 16 24  1  0
 17 22  1  0
 18 19  1  0
 18 17  1  0
 20 19  1  0
 20 29  1  0
 20 21  1  0
 22 16  1  0
 22 21  1  0
 23 16  2  0
 24 25  1  0
 26 27  2  0
 27 28  1  0
 27 46  1  0
 28 31  1  0
 29 26  1  0
 29 30  1  0
 30 28  2  0
 31 32  1  0
 32 33  2  0
 34 37  1  0
 34 33  1  0
 35 34  2  0
 36 35  1  0
 36 31  2  0
 37 38  1  0
 38 39  1  0
 39 40  2  0
 41 40  1  0
 41 45  1  0
 42 41  2  0
 43 38  2  0
 43 42  1  0
 44 43  1  0
 46 47  1  0
 47 50  1  0
 47 49  1  0
 48 46  2  0
 51 52  1  0
 51 26  1  0
 53 51  1  0
 54 56  1  0
 55 66  2  0
 56 61  1  0
 57 65  1  0
 57 67  1  0
 58 64  1  0
 58 60  1  0
 59 65  1  0
 60 59  1  0
 61 60  2  0
 62 63  1  0
 62 56  2  0
 63 58  2  0
 64 57  1  0
 65 55  1  0
 67 69  2  0
 68 67  1  0
 70 68  1  0
 71 80  2  0
 71 76  1  0
 72 68  1  0
 72 76  1  0
 73 72  1  0
 74 75  1  0
 74 73  1  0
 75 71  1  0
 76 77  2  0
 77 78  1  0
 79 78  2  0
 80 79  1  0
 81 55  1  0
 81 82  1  0
 81 91  1  0
 82 85  1  0
 83 87  1  0
 83 82  1  0
 84 83  2  0
 87 86  1  0
 89 87  1  0
 89 90  1  0
 89 88  1  0
 91 94  1  1
 91 92  1  0
 93 91  1  0
M  ISO  4   6 101  16 100  24 100  54 101
M  END
>  <TORSDO>  (97) 
F 22

>  <SCORE>  (97) 
-13.030

>  <name>  (97) 
96

>  <ligand_id>  (97) 
96

>  <original_smiles>  (97) 
[H]c1c([H])c([H])c2c(c1[H])C([H])([H])C([H])([H])C([H])([H])C2([H])N([H])C(=O)C1([H])N(C(=O)C([H])(N([H])C(=O)C([H])(N([H])C([H])([H])[H])C([H])([H])[H])C(C([H])([H])[H])(C([H])([H])[H])C([H])([H])[H])C([H])([H])c2c([H])c(Oc3c([H])c([H])c(N([H])C([H])([H])C([H])([H])[N+]([H])([H])C([H])([H])C([H])([H])N([H])C(=O)N4C([H])([H])C([H])([H])C([H])([H])C([H])(n5nc(-c6c([H])c([H])c(Oc7c([H])c([H])c(F)c([H])c7F)c([H])c6[H])c(C(=O)N([H])[H])c5N([H])[H])C4([H])[H])c([H])c3[H])c([H])c([H])c2C1([H])[H]

>  <smiles>  (97) 
[H]c1c([H])c([H])c2c(c1[H])C([H])([H])C([H])([H])C([H])([H])C2([H])N([H])C(=O)C1([H])N(C(=O)C([H])(N([H])C(=O)C([H])(N([H])C([H])([H])[H])C([H])([H])[H])C(C([H])([H])[H])(C([H])([H])[H])C([H])([H])[H])C([H])([H])c2c([H])c(Oc3c([H])c([H])c(N([H])C([H])([H])C([H])([H])[N+]([H])([H])C([H])([H])C([H])([H])N([H])C(=O)N4C([H])([H])C([H])([H])C([H])([H])C([H])(n5nc(-c6c([H])c([H])c(Oc7c([H])c([H])c(F)c([H])c7F)c([H])c6[H])c(C(=O)N([H])[H])c5N([H])[H])C4([H])[H])c([H])c3[H])c([H])c([H])c2C1([H])[H]

$$$$
97:0:0
     RDKit          3D

 96104  0  0  1  0  0  0  0  0999 V2000
  -30.5810  -18.5320   17.9020 C   0  0  0  0  0  3  0  0  0  0  0  0
  -31.1330  -19.6920   17.3390 C   0  0  0  0  0  3  0  0  0  0  0  0
  -30.2250  -19.7320   19.9910 C   0  0  0  0  0  3  0  0  0  0  0  0
  -30.1600  -18.5360   19.2450 C   0  0  0  0  0  0  0  0  0  0  0  0
  -31.2490  -20.8790   18.0910 C   0  0  0  0  0  0  0  0  0  0  0  0
  -30.7550  -20.9220   19.4300 C   0  0  0  0  0  0  0  0  0  0  0  0
  -31.9130  -22.0550   17.3940 C   0  0  0  0  0  1  0  0  0  0  0  0
  -29.6040  -17.2900   19.8190 C   0  0  0  0  0  0  0  0  0  0  0  0
  -28.7140  -16.6410   19.2600 O   0  0  0  0  0  0  0  0  0  0  0  0
  -30.2390  -16.7740   21.1230 C   0  0  0  0  0  2  0  0  0  0  0  0
  -30.6610  -14.4040   20.5440 C   0  0  0  0  0  0  0  0  0  0  0  0
  -30.3270  -12.3130   19.2910 C   0  0  0  0  0  2  0  0  0  0  0  0
  -29.3870  -12.5870   18.1000 C   0  0  0  0  0  2  0  0  0  0  0  0
  -27.9100  -12.4570   18.5220 C   0  0  0  0  0  2  0  0  0  0  0  0
  -27.5880  -13.2510   19.8170 C   0  0  0  0  0  3  0  0  0  0  0  0
  -28.6350  -12.9520   20.9160 C   0  0  0  0  0  2  0  0  0  0  0  0
  -29.9740  -13.2470   20.3690 N   0  0  0  0  0  0  0  0  0  0  0  0
  -31.7320  -14.6580   19.9860 O   0  0  0  0  0  0  0  0  0  0  0  0
  -30.0200  -15.3290   21.2660 N   0  0  0  0  0  0  0  0  0  0  0  0
  -29.1420  -15.0430   21.6740 H   0  0  0  0  0  0  0  0  0  0  0  0
  -25.1850  -13.8770   20.4990 C   0  0  0  0  0  0  0  0  0  0  0  0
  -24.1110  -13.1100   20.8620 C   0  0  0  0  0  0  0  0  0  0  0  0
  -24.5660  -11.7550   20.8380 C   0  0  0  0  0  0  0  0  0  0  0  0
  -26.2290  -12.9890   20.2810 N   0  0  0  0  0  0  0  0  0  0  0  0
  -25.8570  -11.7090   20.5390 N   0  0  0  0  0  0  0  0  0  0  0  0
  -23.8340  -10.4960   21.0290 C   0  0  0  0  0  0  0  0  0  0  0  0
  -24.2560   -9.5310   21.9710 C   0  0  0  0  0  3  0  0  0  0  0  0
  -23.5270   -8.3370   22.1480 C   0  0  0  0  0  3  0  0  0  0  0  0
  -22.3610   -8.0970   21.3810 C   0  0  0  0  0  0  0  0  0  0  0  0
  -21.9580   -9.0510   20.4290 C   0  0  0  0  0  3  0  0  0  0  0  0
  -22.6890  -10.2370   20.2510 C   0  0  0  0  0  3  0  0  0  0  0  0
  -21.6050   -6.9520   21.4660 O   0  0  0  0  0  0  0  0  0  0  0  0
  -21.5410   -6.2170   22.6230 C   0  0  0  0  0  0  0  0  0  0  0  0
  -21.0920   -6.7780   23.8380 C   0  0  0  0  0  3  0  0  0  0  0  0
  -20.9750   -5.9690   24.9860 C   0  0  0  0  0  3  0  0  0  0  0  0
  -21.3000   -4.6010   24.9200 C   0  0  0  0  0  0  0  0  0  0  0  0
  -21.7440   -4.0390   23.7080 C   0  0  0  0  0  3  0  0  0  0  0  0
  -21.8610   -4.8470   22.5630 C   0  0  0  0  0  0  0  0  0  0  0  0
  -22.2660   -4.2960   21.3930 F   0  0  0  0  0  0  0  0  0  0  0  0
  -21.1820   -3.8210   26.0190 F   0  0  0  0  0  0  0  0  0  0  0  0
  -22.7140  -13.5930   21.1260 C   0  0  0  0  0  0  0  0  0  0  0  0
  -21.9780  -12.9000   21.9860 N   0  0  0  0  0  0  0  0  0  0  0  0
  -22.2820  -14.6170   20.5990 O   0  0  0  0  0  0  0  0  0  0  0  0
  -22.3400  -12.0710   22.4340 H   0  0  0  0  0  0  0  0  0  0  0  0
  -21.0420  -13.2070   22.2080 H   0  0  0  0  0  0  0  0  0  0  0  0
  -25.3610  -15.2450   20.3150 N   0  0  0  0  0  0  0  0  0  0  0  0
  -24.6000  -15.9110   20.4020 H   0  0  0  0  0  0  0  0  0  0  0  0
  -26.2240  -15.6670   19.9890 H   0  0  0  0  0  0  0  0  0  0  0  0
  -32.2220  -22.3660   20.8770 C   0  0  0  0  0  1  0  0  0  0  0  0
  -30.7940  -22.1740   20.3250 C   0  0  0  0  0  3  0  0  0  0  0  0
  -30.1320  -23.4230   19.6540 C   0  0  0  0  0  2  0  0  0  0  0  0
  -28.5930  -24.0680   21.6100 C   0  0  0  0  0  1  0  0  0  0  0  0
  -30.6870  -25.3970   21.1730 C   0  0  0  0  0  1  0  0  0  0  0  0
  -29.5460  -24.5890   20.5150 C   0  0  1  0  0  0  0  0  0  0  0  0
  -28.7280  -25.5210   19.5650 C   0  0  0  0  0  2  0  0  0  0  0  0
  -28.4790  -26.7910   20.1800 O   0  0  0  0  0  0  0  0  0  0  0  0
  -24.6060  -31.8730   23.2290 C   0  0  0  0  0  0  0  0  0  0  0  0
  -27.2610  -27.4390   20.1340 C   0  0  0  0  0  0  0  0  0  0  0  0
  -23.3990  -30.4700   21.5890 C   0  0  0  0  0  3  0  0  0  0  0  0
  -24.8510  -28.9320   20.1620 C   0  0  0  0  0  0  0  0  0  0  0  0
  -25.9230  -30.8270   21.3930 C   0  0  0  0  0  2  0  0  0  0  0  0
  -26.0060  -29.4580   20.7500 C   0  0  0  0  0  0  0  0  0  0  0  0
  -27.2040  -28.7150   20.7380 C   0  0  0  0  0  3  0  0  0  0  0  0
  -26.0840  -26.9220   19.5410 C   0  0  0  0  0  3  0  0  0  0  0  0
  -24.8840  -27.6630   19.5580 C   0  0  0  0  0  3  0  0  0  0  0  0
  -23.6070  -29.7890   20.2090 C   0  0  0  0  0  2  0  0  0  0  0  0
  -24.6610  -31.0680   22.1310 N   0  0  0  0  0  0  0  0  0  0  0  0
  -23.5210  -32.1650   23.7510 O   0  0  0  0  0  0  0  0  0  0  0  0
  -22.7460  -29.4500   22.5470 C   0  0  0  0  0  0  0  0  0  0  0  0
  -21.4210  -29.2710   22.4190 N   0  0  0  0  0  0  0  0  0  0  0  0
  -23.4270  -28.8200   23.3610 O   0  0  0  0  0  0  0  0  0  0  0  0
  -20.9330  -29.8290   21.7320 H   0  0  0  0  0  0  0  0  0  0  0  0
  -18.0420  -28.0930   22.9140 C   0  0  0  0  0  0  0  0  0  0  0  0
  -20.6020  -28.3320   23.1840 C   0  0  0  0  0  3  0  0  0  0  0  0
  -20.6940  -26.9060   22.5940 C   0  0  0  0  0  2  0  0  0  0  0  0
  -19.5890  -26.5970   21.5810 C   0  0  0  0  0  2  0  0  0  0  0  0
  -18.2090  -26.7470   22.2280 C   0  0  0  0  0  2  0  0  0  0  0  0
  -19.1660  -28.8440   23.3480 C   0  0  0  0  0  0  0  0  0  0  0  0
  -18.9560  -30.1040   23.9500 C   0  0  0  0  0  3  0  0  0  0  0  0
  -17.6550  -30.6130   24.1200 C   0  0  0  0  0  3  0  0  0  0  0  0
  -16.5450  -29.8580   23.7020 C   0  0  0  0  0  3  0  0  0  0  0  0
  -16.7400  -28.6000   23.1050 C   0  0  0  0  0  3  0  0  0  0  0  0
  -25.8940  -32.4900   23.8610 C   0  0  0  0  0  3  0  0  0  0  0  0
  -25.5930  -33.8890   24.1970 N   0  0  0  0  0  0  0  0  0  0  0  0
  -25.9220  -34.9400   23.4350 C   0  0  0  0  0  0  0  0  0  0  0  0
  -26.5850  -34.8350   22.3990 O   0  0  0  0  0  0  0  0  0  0  0  0
  -25.0020  -34.0440   25.0000 H   0  0  0  0  0  0  0  0  0  0  0  0
  -24.1950  -36.7350   23.0850 C   0  0  0  0  0  1  0  0  0  0  0  0
  -25.4380  -36.3290   23.8940 C   0  0  0  0  0  3  0  0  0  0  0  0
  -27.5750  -37.2100   24.7190 C   0  0  0  0  0  1  0  0  0  0  0  0
  -26.4720  -37.3790   23.7770 N   0  0  0  0  0  0  0  0  0  0  0  0
  -26.0690  -38.3000   23.9220 H   0  0  0  0  0  0  0  0  0  0  0  0
  -26.4060  -31.7100   25.1340 C   0  0  1  0  0  0  0  0  0  0  0  0
  -25.3070  -31.4710   26.1960 C   0  0  0  0  0  1  0  0  0  0  0  0
  -26.9860  -30.3330   24.7350 C   0  0  0  0  0  1  0  0  0  0  0  0
  -27.5580  -32.4960   25.8040 C   0  0  0  0  0  1  0  0  0  0  0  0
  1  4  1  0
  2  1  2  0
  2  5  1  0
  4  8  1  0
  4  3  2  0
  5  6  2  0
  6  3  1  0
  6 50  1  0
  7  5  1  0
  8 10  1  0
  9  8  2  0
 10 19  1  0
 11 19  1  0
 12 17  1  0
 13 14  1  0
 13 12  1  0
 15 14  1  0
 15 24  1  0
 15 16  1  0
 17 11  1  0
 17 16  1  0
 18 11  2  0
 19 20  1  0
 21 22  2  0
 22 41  1  0
 23 22  1  0
 23 26  1  0
 24 21  1  0
 24 25  1  0
 25 23  2  0
 26 27  1  0
 27 28  2  0
 29 32  1  0
 29 28  1  0
 30 29  2  0
 31 30  1  0
 31 26  2  0
 32 33  1  0
 33 34  1  0
 34 35  2  0
 36 35  1  0
 36 40  1  0
 37 36  2  0
 38 33  2  0
 38 37  1  0
 39 38  1  0
 41 42  1  0
 42 45  1  0
 42 44  1  0
 43 41  2  0
 46 47  1  0
 46 21  1  0
 48 46  1  0
 50 49  1  0
 51 50  1  0
 51 54  1  0
 54 53  1  1
 54 52  1  0
 55 56  1  0
 55 54  1  0
 57 68  2  0
 58 56  1  0
 58 63  1  0
 59 67  1  0
 59 69  1  0
 60 66  1  0
 60 62  1  0
 61 67  1  0
 62 61  1  0
 63 62  2  0
 64 65  1  0
 64 58  2  0
 65 60  2  0
 66 59  1  0
 67 57  1  0
 69 71  2  0
 70 69  1  0
 72 70  1  0
 73 82  2  0
 73 78  1  0
 74 70  1  0
 74 78  1  0
 75 74  1  0
 76 77  1  0
 76 75  1  0
 77 73  1  0
 78 79  2  0
 79 80  1  0
 81 80  2  0
 82 81  1  0
 83 57  1  0
 83 84  1  0
 83 93  1  0
 84 87  1  0
 85 89  1  0
 85 84  1  0
 86 85  2  0
 89 88  1  0
 91 89  1  0
 91 92  1  0
 91 90  1  0
 93 96  1  1
 93 94  1  0
 95 93  1  0
M  ISO  4  11 100  19 100  55 101  56 101
M  END
>  <TORSDO>  (98) 
F 22

>  <SCORE>  (98) 
-13.287

>  <name>  (98) 
97

>  <ligand_id>  (98) 
97

>  <original_smiles>  (98) 
[H]c1c([H])c([H])c2c(c1[H])C([H])([H])C([H])([H])C([H])([H])C2([H])N([H])C(=O)C1([H])N(C(=O)C([H])(N([H])C(=O)C([H])(N([H])C([H])([H])[H])C([H])([H])[H])C(C([H])([H])[H])(C([H])([H])[H])C([H])([H])[H])C([H])([H])c2c([H])c(OC([H])([H])C(C([H])([H])[H])(C([H])([H])[H])C([H])([H])C([H])(c3c([H])c(C(=O)C([H])([H])N([H])C(=O)N4C([H])([H])C([H])([H])C([H])([H])C([H])(n5nc(-c6c([H])c([H])c(Oc7c([H])c([H])c(F)c([H])c7F)c([H])c6[H])c(C(=O)N([H])[H])c5N([H])[H])C4([H])[H])c([H])c([H])c3C([H])([H])[H])C([H])([H])[H])c([H])c([H])c2C1([H])[H]

>  <smiles>  (98) 
[H]c1c([H])c([H])c2c(c1[H])C([H])([H])C([H])([H])C([H])([H])C2([H])N([H])C(=O)C1([H])N(C(=O)C([H])(N([H])C(=O)C([H])(N([H])C([H])([H])[H])C([H])([H])[H])C(C([H])([H])[H])(C([H])([H])[H])C([H])([H])[H])C([H])([H])c2c([H])c(OC([H])([H])C(C([H])([H])[H])(C([H])([H])[H])C([H])([H])C([H])(c3c([H])c(C(=O)C([H])([H])N([H])C(=O)N4C([H])([H])C([H])([H])C([H])([H])C([H])(n5nc(-c6c([H])c([H])c(Oc7c([H])c([H])c(F)c([H])c7F)c([H])c6[H])c(C(=O)N([H])[H])c5N([H])[H])C4([H])[H])c([H])c([H])c3C([H])([H])[H])C([H])([H])[H])c([H])c([H])c2C1([H])[H]

$$$$
98:0:0
     RDKit          3D

 93101  0  0  1  0  0  0  0  0999 V2000
  -30.6280  -21.1840   21.0660 C   0  0  0  0  0  3  0  0  0  0  0  0
  -31.0110  -22.5290   21.2840 C   0  0  0  0  0  3  0  0  0  0  0  0
  -28.4990  -22.0290   20.2980 C   0  0  0  0  0  3  0  0  0  0  0  0
  -29.3550  -20.8460   20.5700 C   0  0  0  0  0  0  0  0  0  0  0  0
  -30.1650  -23.6390   21.0180 C   0  0  0  0  0  0  0  0  0  0  0  0
  -28.8590  -23.4540   20.4940 C   0  0  0  0  0  0  0  0  0  0  0  0
  -30.6940  -25.0280   21.3270 C   0  0  0  0  0  1  0  0  0  0  0  0
  -27.8690  -24.7320   20.1810 C   0  0  0  0  0  2  0  0  0  0  0  0
  -28.1790  -26.2420   20.3630 O   0  0  0  0  0  0  0  0  0  0  0  0
  -24.5820  -31.9510   23.2920 C   0  0  0  0  0  0  0  0  0  0  0  0
  -27.1270  -27.2210   20.2820 C   0  0  0  0  0  0  0  0  0  0  0  0
  -23.3670  -30.5430   21.6780 C   0  0  0  0  0  3  0  0  0  0  0  0
  -24.8020  -28.9620   20.2530 C   0  0  0  0  0  0  0  0  0  0  0  0
  -25.9210  -30.8000   21.5000 C   0  0  0  0  0  2  0  0  0  0  0  0
  -25.9850  -29.4090   20.8520 C   0  0  0  0  0  0  0  0  0  0  0  0
  -27.1490  -28.5550   20.8510 C   0  0  0  0  0  3  0  0  0  0  0  0
  -25.9170  -26.8730   19.6380 C   0  0  0  0  0  3  0  0  0  0  0  0
  -24.7800  -27.7060   19.6290 C   0  0  0  0  0  3  0  0  0  0  0  0
  -23.5760  -29.8590   20.3020 C   0  0  0  0  0  2  0  0  0  0  0  0
  -24.6450  -31.1150   22.2140 N   0  0  0  0  0  0  0  0  0  0  0  0
  -23.4940  -32.2730   23.7910 O   0  0  0  0  0  0  0  0  0  0  0  0
  -22.6910  -29.5420   22.6510 C   0  0  0  0  0  0  0  0  0  0  0  0
  -21.3660  -29.3530   22.5120 N   0  0  0  0  0  0  0  0  0  0  0  0
  -23.3600  -28.9390   23.4920 O   0  0  0  0  0  0  0  0  0  0  0  0
  -20.8810  -29.8920   21.8080 H   0  0  0  0  0  0  0  0  0  0  0  0
  -17.9950  -28.1120   22.9850 C   0  0  0  0  0  0  0  0  0  0  0  0
  -20.5460  -28.4190   23.2890 C   0  0  0  0  0  3  0  0  0  0  0  0
  -20.6780  -26.9770   22.7450 C   0  0  0  0  0  2  0  0  0  0  0  0
  -19.5970  -26.6170   21.7200 C   0  0  0  0  0  2  0  0  0  0  0  0
  -18.2030  -26.7530   22.3380 C   0  0  0  0  0  2  0  0  0  0  0  0
  -19.0950  -28.9000   23.4170 C   0  0  0  0  0  0  0  0  0  0  0  0
  -18.8460  -30.1700   23.9840 C   0  0  0  0  0  3  0  0  0  0  0  0
  -17.5310  -30.6510   24.1220 C   0  0  0  0  0  3  0  0  0  0  0  0
  -16.4450  -29.8600   23.7060 C   0  0  0  0  0  3  0  0  0  0  0  0
  -16.6780  -28.5940   23.1430 C   0  0  0  0  0  3  0  0  0  0  0  0
  -25.8660  -32.5740   23.9230 C   0  0  0  0  0  3  0  0  0  0  0  0
  -25.5700  -33.9790   24.2440 N   0  0  0  0  0  0  0  0  0  0  0  0
  -25.8770  -35.0210   23.4600 C   0  0  0  0  0  0  0  0  0  0  0  0
  -26.5120  -34.9000   22.4090 O   0  0  0  0  0  0  0  0  0  0  0  0
  -25.0010  -34.1440   25.0600 H   0  0  0  0  0  0  0  0  0  0  0  0
  -24.1340  -36.8100   23.1530 C   0  0  0  0  0  1  0  0  0  0  0  0
  -25.4100  -36.4170   23.9160 C   0  0  0  0  0  3  0  0  0  0  0  0
  -27.5730  -37.3230   24.6450 C   0  0  0  0  0  1  0  0  0  0  0  0
  -26.4360  -37.4680   23.7400 N   0  0  0  0  0  0  0  0  0  0  0  0
  -26.0340  -38.3910   23.8810 H   0  0  0  0  0  0  0  0  0  0  0  0
  -26.3660  -31.8130   25.2130 C   0  0  1  0  0  0  0  0  0  0  0  0
  -25.2620  -31.5980   26.2740 C   0  0  0  0  0  1  0  0  0  0  0  0
  -26.9420  -30.4260   24.8480 C   0  0  0  0  0  1  0  0  0  0  0  0
  -27.5180  -32.6060   25.8760 C   0  0  0  0  0  1  0  0  0  0  0  0
  -28.9650  -19.2450   20.4300 C   0  0  0  0  0  3  0  0  0  0  0  0
  -28.1080  -19.0310   19.1710 C   0  0  0  0  0  0  0  0  0  0  0  0
  -28.5330  -19.5620   18.0300 N   0  0  0  0  0  0  0  0  0  0  0  0
  -27.0710  -18.3710   19.2150 O   0  0  0  0  0  0  0  0  0  0  0  0
  -29.3860  -20.1050   18.0230 H   0  0  0  0  0  0  0  0  0  0  0  0
  -28.0100  -19.4410   17.1760 H   0  0  0  0  0  0  0  0  0  0  0  0
  -30.0280  -17.9440   20.5340 C   0  0  0  0  0  3  0  0  0  0  0  0
  -29.5520  -16.3380   20.6630 C   0  0  0  0  0  3  0  0  0  0  0  0
  -30.4390  -14.9780   20.3500 C   0  0  0  0  0  0  0  0  0  0  0  0
  -30.3210  -12.6800   19.2970 C   0  0  0  0  0  2  0  0  0  0  0  0
  -29.3560  -12.7320   18.0870 C   0  0  0  0  0  2  0  0  0  0  0  0
  -27.8960  -12.5120   18.5340 C   0  0  0  0  0  2  0  0  0  0  0  0
  -27.5250  -13.3720   19.7700 C   0  0  0  0  0  3  0  0  0  0  0  0
  -28.6040  -13.2900   20.8700 C   0  0  0  0  0  2  0  0  0  0  0  0
  -29.8800  -13.7080   20.2770 N   0  0  0  0  0  0  0  0  0  0  0  0
  -31.6220  -15.0950   20.0110 O   0  0  0  0  0  0  0  0  0  0  0  0
  -25.1500  -13.9260   20.5540 C   0  0  0  0  0  0  0  0  0  0  0  0
  -24.0960  -13.1380   20.9290 C   0  0  0  0  0  0  0  0  0  0  0  0
  -24.5690  -11.7910   20.8680 C   0  0  0  0  0  0  0  0  0  0  0  0
  -26.1950  -13.0590   20.2820 N   0  0  0  0  0  0  0  0  0  0  0  0
  -25.8550  -11.7690   20.5360 N   0  0  0  0  0  0  0  0  0  0  0  0
  -23.8540  -10.5210   21.0480 C   0  0  0  0  0  0  0  0  0  0  0  0
  -24.2910   -9.5540   21.9800 C   0  0  0  0  0  3  0  0  0  0  0  0
  -23.5770   -8.3480   22.1490 C   0  0  0  0  0  3  0  0  0  0  0  0
  -22.4100   -8.1020   21.3860 C   0  0  0  0  0  0  0  0  0  0  0  0
  -21.9920   -9.0580   20.4450 C   0  0  0  0  0  3  0  0  0  0  0  0
  -22.7070  -10.2560   20.2740 C   0  0  0  0  0  3  0  0  0  0  0  0
  -21.6650   -6.9500   21.4660 O   0  0  0  0  0  0  0  0  0  0  0  0
  -21.5960   -6.2150   22.6230 C   0  0  0  0  0  0  0  0  0  0  0  0
  -21.0970   -6.7620   23.8240 C   0  0  0  0  0  3  0  0  0  0  0  0
  -20.9790   -5.9520   24.9710 C   0  0  0  0  0  3  0  0  0  0  0  0
  -21.3490   -4.5940   24.9160 C   0  0  0  0  0  0  0  0  0  0  0  0
  -21.8390   -4.0470   23.7180 C   0  0  0  0  0  3  0  0  0  0  0  0
  -21.9590   -4.8540   22.5740 C   0  0  0  0  0  0  0  0  0  0  0  0
  -22.4130   -4.3150   21.4170 F   0  0  0  0  0  0  0  0  0  0  0  0
  -21.2280   -3.8140   26.0150 F   0  0  0  0  0  0  0  0  0  0  0  0
  -22.7000  -13.6010   21.2290 C   0  0  0  0  0  0  0  0  0  0  0  0
  -21.9880  -12.8830   22.0910 N   0  0  0  0  0  0  0  0  0  0  0  0
  -22.2490  -14.6320   20.7340 O   0  0  0  0  0  0  0  0  0  0  0  0
  -22.3670  -12.0500   22.5160 H   0  0  0  0  0  0  0  0  0  0  0  0
  -21.0510  -13.1740   22.3330 H   0  0  0  0  0  0  0  0  0  0  0  0
  -25.3000  -15.3010   20.3980 N   0  0  0  0  0  0  0  0  0  0  0  0
  -24.5280  -15.9450   20.5340 H   0  0  0  0  0  0  0  0  0  0  0  0
  -26.1330  -15.7600   20.0520 H   0  0  0  0  0  0  0  0  0  0  0  0
  1  2  1  0
  3  6  2  0
  3  4  1  0
  4  1  2  0
  5  2  2  0
  5  7  1  0
  6  5  1  0
  8  9  1  0
  8  6  1  0
 10 21  2  0
 11  9  1  0
 11 16  1  0
 12 20  1  0
 12 22  1  0
 13 19  1  0
 13 15  1  0
 14 20  1  0
 15 14  1  0
 16 15  2  0
 17 11  2  0
 18 17  1  0
 18 13  2  0
 19 12  1  0
 20 10  1  0
 22 24  2  0
 23 22  1  0
 25 23  1  0
 26 35  2  0
 26 31  1  0
 27 23  1  0
 27 31  1  0
 28 27  1  0
 29 30  1  0
 29 28  1  0
 30 26  1  0
 31 32  2  0
 32 33  1  0
 34 33  2  0
 35 34  1  0
 36 10  1  0
 36 37  1  0
 36 46  1  0
 37 40  1  0
 38 42  1  0
 38 37  1  0
 39 38  2  0
 42 41  1  0
 44 45  1  0
 44 42  1  0
 44 43  1  0
 46 49  1  1
 46 47  1  0
 48 46  1  0
 50 56  1  0
 50  4  1  0
 51 53  2  0
 51 50  1  0
 52 51  1  0
 54 52  1  0
 55 52  1  0
 56 57  2  0
 58 57  1  0
 59 64  1  0
 60 61  1  0
 60 59  1  0
 62 61  1  0
 62 69  1  0
 62 63  1  0
 64 58  1  0
 64 63  1  0
 65 58  2  0
 66 67  2  0
 67 86  1  0
 68 67  1  0
 68 71  1  0
 69 70  1  0
 69 66  1  0
 70 68  2  0
 71 72  1  0
 72 73  2  0
 74 77  1  0
 74 73  1  0
 75 74  2  0
 76 75  1  0
 76 71  2  0
 77 78  1  0
 78 79  1  0
 79 80  2  0
 81 80  1  0
 81 85  1  0
 82 81  2  0
 83 78  2  0
 83 82  1  0
 84 83  1  0
 86 87  1  0
 87 90  1  0
 87 89  1  0
 88 86  2  0
 91 92  1  0
 91 66  1  0
 93 91  1  0
M  ISO  4   8 101   9 101  57 100  58 100
M  END
>  <TORSDO>  (99) 
F 21

>  <SCORE>  (99) 
-13.750

>  <name>  (99) 
98

>  <ligand_id>  (99) 
98

>  <original_smiles>  (99) 
[H]c1c([H])c([H])c2c(c1[H])C([H])([H])C([H])([H])C([H])([H])C2([H])N([H])C(=O)C1([H])N(C(=O)C([H])(N([H])C(=O)C([H])(N([H])C([H])([H])[H])C([H])([H])[H])C(C([H])([H])[H])(C([H])([H])[H])C([H])([H])[H])C([H])([H])c2c([H])c(OC([H])([H])c3c([H])c(C([H])(C(=O)N([H])[H])C([H])([H])C([H])([H])C(=O)N4C([H])([H])C([H])([H])C([H])([H])C([H])(n5nc(-c6c([H])c([H])c(Oc7c([H])c([H])c(F)c([H])c7F)c([H])c6[H])c(C(=O)N([H])[H])c5N([H])[H])C4([H])[H])c([H])c([H])c3C([H])([H])[H])c([H])c([H])c2C1([H])[H]

>  <smiles>  (99) 
[H]c1c([H])c([H])c2c(c1[H])C([H])([H])C([H])([H])C([H])([H])C2([H])N([H])C(=O)C1([H])N(C(=O)C([H])(N([H])C(=O)C([H])(N([H])C([H])([H])[H])C([H])([H])[H])C(C([H])([H])[H])(C([H])([H])[H])C([H])([H])[H])C([H])([H])c2c([H])c(OC([H])([H])c3c([H])c(C([H])(C(=O)N([H])[H])C([H])([H])C([H])([H])C(=O)N4C([H])([H])C([H])([H])C([H])([H])C([H])(n5nc(-c6c([H])c([H])c(Oc7c([H])c([H])c(F)c([H])c7F)c([H])c6[H])c(C(=O)N([H])[H])c5N([H])[H])C4([H])[H])c([H])c([H])c3C([H])([H])[H])c([H])c([H])c2C1([H])[H]

$$$$
99:0:0
     RDKit          3D

 93102  0  0  1  0  0  0  0  0999 V2000
  -30.0660  -23.4380   21.0430 C   0  0  0  0  0  2  0  0  0  0  0  0
  -27.6110  -22.9810   21.0100 C   0  0  0  0  0  2  0  0  0  0  0  0
  -29.8430  -24.8650   20.4960 C   0  0  0  0  0  2  0  0  0  0  0  0
  -27.3530  -24.3960   20.4430 C   0  0  0  0  0  2  0  0  0  0  0  0
  -28.9780  -22.4660   20.5350 C   0  0  0  0  0  3  0  0  0  0  0  0
  -28.4440  -25.4430   20.8140 C   0  0  0  0  0  3  0  0  0  0  0  0
  -28.5350  -20.0070   20.0390 C   0  0  0  0  0  3  0  0  0  0  0  0
  -30.2530  -20.5290   21.6740 C   0  0  0  0  0  3  0  0  0  0  0  0
  -28.9370  -18.6530   20.0360 C   0  0  0  0  0  3  0  0  0  0  0  0
  -30.6670  -19.1800   21.6590 C   0  0  0  0  0  3  0  0  0  0  0  0
  -29.2360  -20.9730   20.7990 C   0  0  0  0  0  0  0  0  0  0  0  0
  -30.0650  -18.2480   20.7840 C   0  0  0  0  0  0  0  0  0  0  0  0
  -31.4020  -17.2140   19.0000 C   0  0  0  0  0  1  0  0  0  0  0  0
  -30.8290  -16.9710   20.4230 C   0  0  0  0  0  3  0  0  0  0  0  0
  -30.7360  -14.4920   20.3770 C   0  0  0  0  0  0  0  0  0  0  0  0
  -30.3410  -12.3220   19.3060 C   0  0  0  0  0  2  0  0  0  0  0  0
  -29.4240  -12.5100   18.0840 C   0  0  0  0  0  2  0  0  0  0  0  0
  -27.9480  -12.4000   18.5070 C   0  0  0  0  0  2  0  0  0  0  0  0
  -27.6050  -13.2760   19.7450 C   0  0  0  0  0  3  0  0  0  0  0  0
  -28.6580  -13.1280   20.8670 C   0  0  0  0  0  2  0  0  0  0  0  0
  -29.9790  -13.3680   20.2770 N   0  0  0  0  0  0  0  0  0  0  0  0
  -31.9320  -14.4820   20.0920 O   0  0  0  0  0  0  0  0  0  0  0  0
  -30.1080  -15.6780   20.5450 N   0  0  0  0  0  0  0  0  0  0  0  0
  -29.1150  -15.6880   20.7180 H   0  0  0  0  0  0  0  0  0  0  0  0
  -25.2090  -13.8910   20.4420 C   0  0  0  0  0  0  0  0  0  0  0  0
  -24.1360  -13.1240   20.8090 C   0  0  0  0  0  0  0  0  0  0  0  0
  -24.5930  -11.7710   20.7960 C   0  0  0  0  0  0  0  0  0  0  0  0
  -26.2530  -13.0040   20.2260 N   0  0  0  0  0  0  0  0  0  0  0  0
  -25.8860  -11.7250   20.5000 N   0  0  0  0  0  0  0  0  0  0  0  0
  -23.8590  -10.5120   20.9900 C   0  0  0  0  0  0  0  0  0  0  0  0
  -24.2770   -9.5530   21.9390 C   0  0  0  0  0  3  0  0  0  0  0  0
  -23.5420   -8.3600   22.1200 C   0  0  0  0  0  3  0  0  0  0  0  0
  -22.3770   -8.1200   21.3540 C   0  0  0  0  0  0  0  0  0  0  0  0
  -21.9790   -9.0680   20.3960 C   0  0  0  0  0  3  0  0  0  0  0  0
  -22.7140  -10.2510   20.2120 C   0  0  0  0  0  3  0  0  0  0  0  0
  -21.6160   -6.9800   21.4460 O   0  0  0  0  0  0  0  0  0  0  0  0
  -21.5450   -6.2520   22.6060 C   0  0  0  0  0  0  0  0  0  0  0  0
  -21.0950   -6.8210   23.8170 C   0  0  0  0  0  3  0  0  0  0  0  0
  -20.9730   -6.0190   24.9700 C   0  0  0  0  0  3  0  0  0  0  0  0
  -21.2910   -4.6500   24.9120 C   0  0  0  0  0  0  0  0  0  0  0  0
  -21.7350   -4.0800   23.7060 C   0  0  0  0  0  3  0  0  0  0  0  0
  -21.8590   -4.8780   22.5550 C   0  0  0  0  0  0  0  0  0  0  0  0
  -22.2660   -4.3190   21.3900 F   0  0  0  0  0  0  0  0  0  0  0  0
  -21.1670   -3.8770   26.0170 F   0  0  0  0  0  0  0  0  0  0  0  0
  -22.7390  -13.6100   21.0650 C   0  0  0  0  0  0  0  0  0  0  0  0
  -22.0010  -12.9230   21.9290 N   0  0  0  0  0  0  0  0  0  0  0  0
  -22.3100  -14.6330   20.5330 O   0  0  0  0  0  0  0  0  0  0  0  0
  -22.3620  -12.0950   22.3820 H   0  0  0  0  0  0  0  0  0  0  0  0
  -21.0620  -13.2290   22.1430 H   0  0  0  0  0  0  0  0  0  0  0  0
  -25.3810  -15.2570   20.2500 N   0  0  0  0  0  0  0  0  0  0  0  0
  -24.6170  -15.9170   20.3510 H   0  0  0  0  0  0  0  0  0  0  0  0
  -26.2330  -15.6900   19.9170 H   0  0  0  0  0  0  0  0  0  0  0  0
  -28.3870  -26.7070   20.1130 O   0  0  0  0  0  0  0  0  0  0  0  0
  -24.6020  -31.9040   23.2410 C   0  0  0  0  0  0  0  0  0  0  0  0
  -27.2240  -27.4450   20.1610 C   0  0  0  0  0  0  0  0  0  0  0  0
  -23.3920  -30.4980   21.6100 C   0  0  0  0  0  3  0  0  0  0  0  0
  -24.8400  -28.9700   20.1740 C   0  0  0  0  0  0  0  0  0  0  0  0
  -25.9200  -30.8520   21.4080 C   0  0  0  0  0  2  0  0  0  0  0  0
  -26.0000  -29.4810   20.7710 C   0  0  0  0  0  0  0  0  0  0  0  0
  -27.1950  -28.7250   20.7660 C   0  0  0  0  0  3  0  0  0  0  0  0
  -26.0580  -26.9770   19.5200 C   0  0  0  0  0  3  0  0  0  0  0  0
  -24.8640  -27.7150   19.5470 C   0  0  0  0  0  3  0  0  0  0  0  0
  -23.5980  -29.8270   20.2270 C   0  0  0  0  0  2  0  0  0  0  0  0
  -24.6570  -31.0950   22.1460 N   0  0  0  0  0  0  0  0  0  0  0  0
  -23.5180  -32.1980   23.7640 O   0  0  0  0  0  0  0  0  0  0  0  0
  -22.7490  -29.4690   22.5690 C   0  0  0  0  0  0  0  0  0  0  0  0
  -21.4250  -29.2800   22.4450 N   0  0  0  0  0  0  0  0  0  0  0  0
  -23.4380  -28.8430   23.3790 O   0  0  0  0  0  0  0  0  0  0  0  0
  -20.9300  -29.8360   21.7610 H   0  0  0  0  0  0  0  0  0  0  0  0
  -18.0570  -28.0780   22.9500 C   0  0  0  0  0  0  0  0  0  0  0  0
  -20.6150  -28.3380   23.2150 C   0  0  0  0  0  3  0  0  0  0  0  0
  -20.7180  -26.9100   22.6320 C   0  0  0  0  0  2  0  0  0  0  0  0
  -19.6140  -26.5890   21.6200 C   0  0  0  0  0  2  0  0  0  0  0  0
  -18.2340  -26.7310   22.2690 C   0  0  0  0  0  2  0  0  0  0  0  0
  -19.1760  -28.8400   23.3790 C   0  0  0  0  0  0  0  0  0  0  0  0
  -18.9570  -30.1030   23.9720 C   0  0  0  0  0  3  0  0  0  0  0  0
  -17.6520  -30.6000   24.1450 C   0  0  0  0  0  3  0  0  0  0  0  0
  -16.5480  -29.8340   23.7330 C   0  0  0  0  0  3  0  0  0  0  0  0
  -16.7510  -28.5760   23.1390 C   0  0  0  0  0  3  0  0  0  0  0  0
  -25.8920  -32.5250   23.8640 C   0  0  0  0  0  3  0  0  0  0  0  0
  -25.5880  -33.9250   24.1910 N   0  0  0  0  0  0  0  0  0  0  0  0
  -25.9150  -34.9720   23.4230 C   0  0  0  0  0  0  0  0  0  0  0  0
  -26.5770  -34.8630   22.3880 O   0  0  0  0  0  0  0  0  0  0  0  0
  -24.9980  -34.0850   24.9940 H   0  0  0  0  0  0  0  0  0  0  0  0
  -24.1800  -36.7600   23.0730 C   0  0  0  0  0  1  0  0  0  0  0  0
  -25.4290  -36.3620   23.8770 C   0  0  0  0  0  3  0  0  0  0  0  0
  -27.5680  -37.2540   24.6870 C   0  0  0  0  0  1  0  0  0  0  0  0
  -26.4590  -37.4150   23.7510 N   0  0  0  0  0  0  0  0  0  0  0  0
  -26.0530  -38.3360   23.8960 H   0  0  0  0  0  0  0  0  0  0  0  0
  -26.4100  -31.7530   25.1390 C   0  0  1  0  0  0  0  0  0  0  0  0
  -25.3170  -31.5150   26.2070 C   0  0  0  0  0  1  0  0  0  0  0  0
  -26.9930  -30.3760   24.7450 C   0  0  0  0  0  1  0  0  0  0  0  0
  -27.5600  -32.5480   25.8010 C   0  0  0  0  0  1  0  0  0  0  0  0
  3  6  1  0
  3  1  1  0
  4  6  1  0
  4  2  1  0
  5 11  1  0
  5  2  1  0
  5  1  1  0
  6 53  1  0
  7 11  1  0
  9  7  2  0
  9 12  1  0
 10  8  1  0
 11  8  2  0
 12 10  2  0
 14 13  1  0
 14 23  1  0
 14 12  1  0
 15 23  1  0
 16 21  1  0
 17 18  1  0
 17 16  1  0
 19 18  1  0
 19 28  1  0
 19 20  1  0
 21 15  1  0
 21 20  1  0
 22 15  2  0
 23 24  1  0
 25 26  2  0
 26 45  1  0
 27 26  1  0
 27 30  1  0
 28 25  1  0
 28 29  1  0
 29 27  2  0
 30 31  1  0
 31 32  2  0
 33 36  1  0
 33 32  1  0
 34 33  2  0
 35 34  1  0
 35 30  2  0
 36 37  1  0
 37 38  1  0
 38 39  2  0
 40 39  1  0
 40 44  1  0
 41 40  2  0
 42 37  2  0
 42 41  1  0
 43 42  1  0
 45 46  1  0
 46 49  1  0
 46 48  1  0
 47 45  2  0
 50 51  1  0
 50 25  1  0
 52 50  1  0
 53 55  1  0
 54 65  2  0
 55 60  1  0
 56 64  1  0
 56 66  1  0
 57 63  1  0
 57 59  1  0
 58 64  1  0
 59 58  1  0
 60 59  2  0
 61 62  1  0
 61 55  2  0
 62 57  2  0
 63 56  1  0
 64 54  1  0
 66 68  2  0
 67 66  1  0
 69 67  1  0
 70 79  2  0
 70 75  1  0
 71 67  1  0
 71 75  1  0
 72 71  1  0
 73 74  1  0
 73 72  1  0
 74 70  1  0
 75 76  2  0
 76 77  1  0
 78 77  2  0
 79 78  1  0
 80 54  1  0
 80 81  1  0
 80 90  1  0
 81 84  1  0
 82 86  1  0
 82 81  1  0
 83 82  2  0
 86 85  1  0
 88 86  1  0
 88 89  1  0
 88 87  1  0
 90 93  1  1
 90 91  1  0
 92 90  1  0
M  ISO  4   6 101  15 100  23 100  53 101
M  END
>  <TORSDO>  (100) 
F 18

>  <SCORE>  (100) 
-14.902

>  <name>  (100) 
99

>  <ligand_id>  (100) 
99

>  <original_smiles>  (100) 
[H]c1c([H])c([H])c2c(c1[H])C([H])([H])C([H])([H])C([H])([H])C2([H])N([H])C(=O)C1([H])N(C(=O)C([H])(N([H])C(=O)C([H])(N([H])C([H])([H])[H])C([H])([H])[H])C(C([H])([H])[H])(C([H])([H])[H])C([H])([H])[H])C([H])([H])c2c([H])c(OC3([H])C([H])([H])C([H])([H])C([H])(c4c([H])c([H])c(C([H])(N([H])C(=O)N5C([H])([H])C([H])([H])C([H])([H])C([H])(n6nc(-c7c([H])c([H])c(Oc8c([H])c([H])c(F)c([H])c8F)c([H])c7[H])c(C(=O)N([H])[H])c6N([H])[H])C5([H])[H])C([H])([H])[H])c([H])c4[H])C([H])([H])C3([H])[H])c([H])c([H])c2C1([H])[H]

>  <smiles>  (100) 
[H]c1c([H])c([H])c2c(c1[H])C([H])([H])C([H])([H])C([H])([H])C2([H])N([H])C(=O)C1([H])N(C(=O)C([H])(N([H])C(=O)C([H])(N([H])C([H])([H])[H])C([H])([H])[H])C(C([H])([H])[H])(C([H])([H])[H])C([H])([H])[H])C([H])([H])c2c([H])c(OC3([H])C([H])([H])C([H])([H])C([H])(c4c([H])c([H])c(C([H])(N([H])C(=O)N5C([H])([H])C([H])([H])C([H])([H])C([H])(n6nc(-c7c([H])c([H])c(Oc8c([H])c([H])c(F)c([H])c8F)c([H])c7[H])c(C(=O)N([H])[H])c6N([H])[H])C5([H])[H])C([H])([H])[H])c([H])c4[H])C([H])([H])C3([H])[H])c([H])c([H])c2C1([H])[H]

$$$$
0:0:0
     RDKit          3D

 95103  0  0  1  0  0  0  0  0999 V2000
  -30.6530  -19.9060   21.6520 C   0  0  0  0  0  3  0  0  0  0  0  0
  -30.6490  -18.5560   21.2340 C   0  0  0  0  0  3  0  0  0  0  0  0
  -28.7380  -20.3540   20.2290 C   0  0  0  0  0  3  0  0  0  0  0  0
  -29.7190  -20.8260   21.1260 C   0  0  0  0  0  0  0  0  0  0  0  0
  -29.7100  -18.0970   20.2860 C   0  0  0  0  0  0  0  0  0  0  0  0
  -28.7310  -19.0090   19.8030 C   0  0  0  0  0  0  0  0  0  0  0  0
  -29.7590  -22.2760   21.5350 C   0  0  0  0  0  0  0  0  0  0  0  0
  -29.4780  -23.1680   20.5710 N   0  0  0  0  0  0  0  0  0  0  0  0
  -30.1010  -22.6000   22.6730 O   0  0  0  0  0  0  0  0  0  0  0  0
  -29.2540  -22.7930   19.6610 H   0  0  0  0  0  0  0  0  0  0  0  0
  -29.5420  -24.6310   20.6900 C   0  0  0  0  0  2  0  0  0  0  0  0
  -28.2660  -25.3080   20.1520 C   0  0  0  0  0  2  0  0  0  0  0  0
  -28.3670  -26.7350   20.2400 O   0  0  0  0  0  0  0  0  0  0  0  0
  -24.5860  -31.9430   23.2510 C   0  0  0  0  0  0  0  0  0  0  0  0
  -27.1910  -27.4570   20.2040 C   0  0  0  0  0  0  0  0  0  0  0  0
  -23.3640  -30.5320   21.6300 C   0  0  0  0  0  3  0  0  0  0  0  0
  -24.8020  -28.9760   20.2090 C   0  0  0  0  0  0  0  0  0  0  0  0
  -25.8920  -30.8720   21.4220 C   0  0  0  0  0  2  0  0  0  0  0  0
  -25.9650  -29.4980   20.7890 C   0  0  0  0  0  0  0  0  0  0  0  0
  -27.1610  -28.7470   20.7800 C   0  0  0  0  0  3  0  0  0  0  0  0
  -26.0090  -26.9510   19.6110 C   0  0  0  0  0  3  0  0  0  0  0  0
  -24.8190  -27.7030   19.6170 C   0  0  0  0  0  3  0  0  0  0  0  0
  -23.5640  -29.8420   20.2540 C   0  0  0  0  0  2  0  0  0  0  0  0
  -24.6340  -31.1270   22.1620 N   0  0  0  0  0  0  0  0  0  0  0  0
  -23.5030  -32.2500   23.7720 O   0  0  0  0  0  0  0  0  0  0  0  0
  -22.7090  -29.5230   22.5990 C   0  0  0  0  0  0  0  0  0  0  0  0
  -21.3840  -29.3440   22.4720 N   0  0  0  0  0  0  0  0  0  0  0  0
  -23.3890  -28.9010   23.4200 O   0  0  0  0  0  0  0  0  0  0  0  0
  -20.8970  -29.8960   21.7790 H   0  0  0  0  0  0  0  0  0  0  0  0
  -18.0060  -28.1620   22.9670 C   0  0  0  0  0  0  0  0  0  0  0  0
  -20.5630  -28.4160   23.2490 C   0  0  0  0  0  3  0  0  0  0  0  0
  -20.6650  -26.9790   22.6870 C   0  0  0  0  0  2  0  0  0  0  0  0
  -19.5670  -26.6490   21.6710 C   0  0  0  0  0  2  0  0  0  0  0  0
  -18.1820  -26.8050   22.3070 C   0  0  0  0  0  2  0  0  0  0  0  0
  -19.1250  -28.9250   23.3950 C   0  0  0  0  0  0  0  0  0  0  0  0
  -18.9080  -30.1960   23.9720 C   0  0  0  0  0  3  0  0  0  0  0  0
  -17.6040  -30.7030   24.1250 C   0  0  0  0  0  3  0  0  0  0  0  0
  -16.4990  -29.9370   23.7140 C   0  0  0  0  0  3  0  0  0  0  0  0
  -16.7010  -28.6690   23.1410 C   0  0  0  0  0  3  0  0  0  0  0  0
  -25.8790  -32.5600   23.8720 C   0  0  0  0  0  3  0  0  0  0  0  0
  -25.5830  -33.9580   24.2070 N   0  0  0  0  0  0  0  0  0  0  0  0
  -25.9050  -35.0080   23.4410 C   0  0  0  0  0  0  0  0  0  0  0  0
  -26.5610  -34.9020   22.4000 O   0  0  0  0  0  0  0  0  0  0  0  0
  -24.9970  -34.1160   25.0140 H   0  0  0  0  0  0  0  0  0  0  0  0
  -24.1700  -36.8000   23.1120 C   0  0  0  0  0  1  0  0  0  0  0  0
  -25.4270  -36.3980   23.9010 C   0  0  0  0  0  3  0  0  0  0  0  0
  -27.5790  -37.2820   24.6880 C   0  0  0  0  0  1  0  0  0  0  0  0
  -26.4570  -37.4500   23.7670 N   0  0  0  0  0  0  0  0  0  0  0  0
  -26.0540  -38.3700   23.9240 H   0  0  0  0  0  0  0  0  0  0  0  0
  -26.4000  -31.7810   25.1420 C   0  0  1  0  0  0  0  0  0  0  0  0
  -25.3120  -31.5440   26.2150 C   0  0  0  0  0  1  0  0  0  0  0  0
  -26.9740  -30.4020   24.7410 C   0  0  0  0  0  1  0  0  0  0  0  0
  -27.5600  -32.5660   25.8000 C   0  0  0  0  0  1  0  0  0  0  0  0
  -27.7520  -18.6300   18.8850 N   0  0  0  0  0  0  0  0  0  0  0  0
  -27.2150  -19.3440   18.4040 H   0  0  0  0  0  0  0  0  0  0  0  0
  -27.8510  -17.7750   18.3490 H   0  0  0  0  0  0  0  0  0  0  0  0
  -29.8600  -16.6840   19.7110 C   0  0  0  0  0  2  0  0  0  0  0  0
  -30.6540  -14.4880   20.4500 C   0  0  0  0  0  0  0  0  0  0  0  0
  -30.3670  -12.3130   19.3610 C   0  0  0  0  0  2  0  0  0  0  0  0
  -29.4380  -12.5380   18.1480 C   0  0  0  0  0  2  0  0  0  0  0  0
  -27.9580  -12.4150   18.5630 C   0  0  0  0  0  2  0  0  0  0  0  0
  -27.6170  -13.2450   19.8310 C   0  0  0  0  0  3  0  0  0  0  0  0
  -28.6670  -13.0220   20.9470 C   0  0  0  0  0  2  0  0  0  0  0  0
  -29.9980  -13.3000   20.3870 N   0  0  0  0  0  0  0  0  0  0  0  0
  -31.8110  -14.6430   20.0510 O   0  0  0  0  0  0  0  0  0  0  0  0
  -29.8560  -15.5510   20.6510 N   0  0  0  0  0  0  0  0  0  0  0  0
  -28.9590  -15.3370   21.0590 H   0  0  0  0  0  0  0  0  0  0  0  0
  -25.2130  -13.8630   20.5120 C   0  0  0  0  0  0  0  0  0  0  0  0
  -24.1410  -13.0930   20.8780 C   0  0  0  0  0  0  0  0  0  0  0  0
  -24.6020  -11.7420   20.8630 C   0  0  0  0  0  0  0  0  0  0  0  0
  -26.2600  -12.9780   20.2990 N   0  0  0  0  0  0  0  0  0  0  0  0
  -25.8950  -11.6980   20.5670 N   0  0  0  0  0  0  0  0  0  0  0  0
  -23.8740  -10.4810   21.0580 C   0  0  0  0  0  0  0  0  0  0  0  0
  -24.3110   -9.5120   21.9870 C   0  0  0  0  0  3  0  0  0  0  0  0
  -23.5840   -8.3150   22.1690 C   0  0  0  0  0  3  0  0  0  0  0  0
  -22.4060   -8.0800   21.4220 C   0  0  0  0  0  0  0  0  0  0  0  0
  -21.9880   -9.0390   20.4820 C   0  0  0  0  0  3  0  0  0  0  0  0
  -22.7140  -10.2270   20.2980 C   0  0  0  0  0  3  0  0  0  0  0  0
  -21.6500   -6.9360   21.5130 O   0  0  0  0  0  0  0  0  0  0  0  0
  -21.6220   -6.1830   22.6590 C   0  0  0  0  0  0  0  0  0  0  0  0
  -21.2330   -6.7290   23.9000 C   0  0  0  0  0  3  0  0  0  0  0  0
  -21.1490   -5.9020   25.0380 C   0  0  0  0  0  3  0  0  0  0  0  0
  -21.4470   -4.5290   24.9370 C   0  0  0  0  0  0  0  0  0  0  0  0
  -21.8310   -3.9820   23.7000 C   0  0  0  0  0  3  0  0  0  0  0  0
  -21.9160   -4.8070   22.5630 C   0  0  0  0  0  0  0  0  0  0  0  0
  -22.2660   -4.2710   21.3690 F   0  0  0  0  0  0  0  0  0  0  0  0
  -21.3610   -3.7330   26.0280 F   0  0  0  0  0  0  0  0  0  0  0  0
  -22.7420  -13.5730   21.1350 C   0  0  0  0  0  0  0  0  0  0  0  0
  -22.0070  -12.8850   22.0010 N   0  0  0  0  0  0  0  0  0  0  0  0
  -22.3080  -14.5950   20.6040 O   0  0  0  0  0  0  0  0  0  0  0  0
  -22.3720  -12.0580   22.4530 H   0  0  0  0  0  0  0  0  0  0  0  0
  -21.0680  -13.1890   22.2170 H   0  0  0  0  0  0  0  0  0  0  0  0
  -25.3780  -15.2320   20.3240 N   0  0  0  0  0  0  0  0  0  0  0  0
  -24.6070  -15.8820   20.4220 H   0  0  0  0  0  0  0  0  0  0  0  0
  -26.2240  -15.6760   19.9900 H   0  0  0  0  0  0  0  0  0  0  0  0
  2  1  1  0
  3  4  1  0
  4  7  1  0
  4  1  2  0
  5  2  2  0
  6  3  2  0
  6  5  1  0
  7  9  2  0
  8 11  1  0
  8  7  1  0
 10  8  1  0
 12 13  1  0
 12 11  1  0
 14 25  2  0
 15 13  1  0
 15 20  1  0
 16 24  1  0
 16 26  1  0
 17 23  1  0
 17 19  1  0
 18 24  1  0
 19 18  1  0
 20 19  2  0
 21 22  1  0
 21 15  2  0
 22 17  2  0
 23 16  1  0
 24 14  1  0
 26 28  2  0
 27 26  1  0
 29 27  1  0
 30 39  2  0
 30 35  1  0
 31 27  1  0
 31 35  1  0
 32 31  1  0
 33 34  1  0
 33 32  1  0
 34 30  1  0
 35 36  2  0
 36 37  1  0
 38 37  2  0
 39 38  1  0
 40 14  1  0
 40 41  1  0
 40 50  1  0
 41 44  1  0
 42 46  1  0
 42 41  1  0
 43 42  2  0
 46 45  1  0
 48 46  1  0
 48 49  1  0
 48 47  1  0
 50 53  1  1
 50 51  1  0
 52 50  1  0
 54  6  1  0
 55 54  1  0
 56 54  1  0
 57  5  1  0
 57 66  1  0
 58 66  1  0
 59 64  1  0
 60 61  1  0
 60 59  1  0
 62 61  1  0
 62 71  1  0
 62 63  1  0
 64 58  1  0
 64 63  1  0
 65 58  2  0
 66 67  1  0
 68 69  2  0
 69 88  1  0
 70 69  1  0
 70 73  1  0
 71 68  1  0
 71 72  1  0
 72 70  2  0
 73 74  1  0
 74 75  2  0
 76 79  1  0
 76 75  1  0
 77 76  2  0
 78 77  1  0
 78 73  2  0
 79 80  1  0
 80 81  1  0
 81 82  2  0
 83 82  1  0
 83 87  1  0
 84 83  2  0
 85 80  2  0
 85 84  1  0
 86 85  1  0
 88 89  1  0
 89 92  1  0
 89 91  1  0
 90 88  2  0
 93 94  1  0
 93 68  1  0
 95 93  1  0
M  ISO  4  12 101  13 101  58 100  66 100
M  END
>  <TORSDO>  (1) 
F 21

>  <SCORE>  (1) 
-14.043

>  <name>  (1) 
0

>  <ligand_id>  (1) 
0

>  <original_smiles>  (1) 
[H]c1c([H])c([H])c2c(c1[H])C([H])([H])C([H])([H])C([H])([H])C2([H])N([H])C(=O)C1([H])N(C(=O)C([H])(N([H])C(=O)C([H])(N([H])C([H])([H])[H])C([H])([H])[H])C(C([H])([H])[H])(C([H])([H])[H])C([H])([H])[H])C([H])([H])c2c([H])c(OC([H])([H])C([H])([H])N([H])C(=O)c3c([H])c([H])c(C([H])([H])N([H])C(=O)N4C([H])([H])C([H])([H])C([H])([H])C([H])(n5nc(-c6c([H])c([H])c(Oc7c([H])c([H])c(F)c([H])c7F)c([H])c6[H])c(C(=O)N([H])[H])c5N([H])[H])C4([H])[H])c(N([H])[H])c3[H])c([H])c([H])c2C1([H])[H]

>  <smiles>  (1) 
[H]c1c([H])c([H])c2c(c1[H])C([H])([H])C([H])([H])C([H])([H])C2([H])N([H])C(=O)C1([H])N(C(=O)C([H])(N([H])C(=O)C([H])(N([H])C([H])([H])[H])C([H])([H])[H])C(C([H])([H])[H])(C([H])([H])[H])C([H])([H])[H])C([H])([H])c2c([H])c(OC([H])([H])C([H])([H])N([H])C(=O)c3c([H])c([H])c(C([H])([H])N([H])C(=O)N4C([H])([H])C([H])([H])C([H])([H])C([H])(n5nc(-c6c([H])c([H])c(Oc7c([H])c([H])c(F)c([H])c7F)c([H])c6[H])c(C(=O)N([H])[H])c5N([H])[H])C4([H])[H])c(N([H])[H])c3[H])c([H])c([H])c2C1([H])[H]

$$$$
1:0:0
     RDKit          3D

 95104  0  0  1  0  0  0  0  0999 V2000
  -33.2190  -20.3060   19.1060 C   0  0  0  0  0  3  0  0  0  0  0  0
  -33.0340  -19.0680   19.7370 C   0  0  0  0  0  0  0  0  0  0  0  0
  -31.7570  -18.8210   20.2520 C   0  0  0  0  0  0  0  0  0  0  0  0
  -31.0530  -20.8800   19.5360 C   0  0  0  0  0  0  0  0  0  0  0  0
  -29.9650  -24.3200   19.3710 C   0  0  0  0  0  2  0  0  0  0  0  0
  -28.5340  -23.0380   20.9920 C   0  0  0  0  0  2  0  0  0  0  0  0
  -30.1410  -23.0220   18.5620 C   0  0  0  0  0  2  0  0  0  0  0  0
  -28.7690  -21.7620   20.1570 C   0  0  0  0  0  2  0  0  0  0  0  0
  -28.6320  -24.3270   20.1440 C   0  0  0  0  0  3  0  0  0  0  0  0
  -34.1710  -18.0630   19.8390 C   0  0  0  0  0  1  0  0  0  0  0  0
  -32.2250  -21.2020   19.0100 N   0  0  0  0  0  0  0  0  0  0  0  0
  -30.7730  -19.7320   20.1500 N   0  0  0  0  0  0  0  0  0  0  0  0
  -30.0400  -21.8430   19.4320 N   0  0  0  0  0  0  0  0  0  0  0  0
  -31.4960  -17.6110   20.9060 N   0  0  0  0  0  0  0  0  0  0  0  0
  -32.2620  -16.9480   20.8390 H   0  0  0  0  0  0  0  0  0  0  0  0
  -28.4830  -25.5840   21.0260 C   0  0  0  0  0  2  0  0  0  0  0  0
  -28.4880  -26.7890   20.2560 O   0  0  0  0  0  0  0  0  0  0  0  0
  -24.6060  -31.9180   23.2960 C   0  0  0  0  0  0  0  0  0  0  0  0
  -27.3080  -27.4910   20.2670 C   0  0  0  0  0  0  0  0  0  0  0  0
  -23.4210  -30.4920   21.6580 C   0  0  0  0  0  3  0  0  0  0  0  0
  -24.8970  -28.9530   20.2570 C   0  0  0  0  0  0  0  0  0  0  0  0
  -25.9430  -30.8730   21.4720 C   0  0  0  0  0  2  0  0  0  0  0  0
  -26.0440  -29.5000   20.8450 C   0  0  0  0  0  0  0  0  0  0  0  0
  -27.2560  -28.7770   20.8440 C   0  0  0  0  0  3  0  0  0  0  0  0
  -26.1470  -26.9450   19.6840 C   0  0  0  0  0  3  0  0  0  0  0  0
  -24.9410  -27.6730   19.6740 C   0  0  0  0  0  3  0  0  0  0  0  0
  -23.6450  -29.7990   20.2860 C   0  0  0  0  0  2  0  0  0  0  0  0
  -24.6750  -31.1060   22.2030 N   0  0  0  0  0  0  0  0  0  0  0  0
  -23.5160  -32.2080   23.8050 O   0  0  0  0  0  0  0  0  0  0  0  0
  -22.7700  -29.4750   22.6210 C   0  0  0  0  0  0  0  0  0  0  0  0
  -21.4470  -29.2810   22.4810 N   0  0  0  0  0  0  0  0  0  0  0  0
  -23.4490  -28.8620   23.4480 O   0  0  0  0  0  0  0  0  0  0  0  0
  -20.9620  -29.8310   21.7860 H   0  0  0  0  0  0  0  0  0  0  0  0
  -18.0760  -28.0690   22.9490 C   0  0  0  0  0  0  0  0  0  0  0  0
  -20.6280  -28.3430   23.2460 C   0  0  0  0  0  3  0  0  0  0  0  0
  -20.7460  -26.9100   22.6770 C   0  0  0  0  0  2  0  0  0  0  0  0
  -19.6560  -26.5770   21.6540 C   0  0  0  0  0  2  0  0  0  0  0  0
  -18.2660  -26.7170   22.2830 C   0  0  0  0  0  2  0  0  0  0  0  0
  -19.1850  -28.8400   23.3860 C   0  0  0  0  0  0  0  0  0  0  0  0
  -18.9530  -30.1060   23.9670 C   0  0  0  0  0  3  0  0  0  0  0  0
  -17.6440  -30.6010   24.1160 C   0  0  0  0  0  3  0  0  0  0  0  0
  -16.5490  -29.8270   23.6950 C   0  0  0  0  0  3  0  0  0  0  0  0
  -16.7650  -28.5640   23.1170 C   0  0  0  0  0  3  0  0  0  0  0  0
  -25.8850  -32.5510   23.9300 C   0  0  0  0  0  3  0  0  0  0  0  0
  -26.3870  -31.7950   25.2210 C   0  0  1  0  0  0  0  0  0  0  0  0
  -25.2810  -31.5650   26.2780 C   0  0  0  0  0  1  0  0  0  0  0  0
  -26.9790  -30.4150   24.8500 C   0  0  0  0  0  1  0  0  0  0  0  0
  -27.5280  -32.5970   25.8890 C   0  0  0  0  0  1  0  0  0  0  0  0
  -25.5770  -33.9540   24.2370 N   0  0  0  0  0  0  0  0  0  0  0  0
  -25.9180  -34.9920   23.4640 C   0  0  0  0  0  0  0  0  0  0  0  0
  -26.5990  -34.8730   22.4410 O   0  0  0  0  0  0  0  0  0  0  0  0
  -24.9750  -34.1220   25.0300 H   0  0  0  0  0  0  0  0  0  0  0  0
  -24.1950  -36.7780   23.0600 C   0  0  0  0  0  1  0  0  0  0  0  0
  -25.4260  -36.3870   23.8930 C   0  0  0  0  0  3  0  0  0  0  0  0
  -27.5510  -37.2850   24.7330 C   0  0  0  0  0  1  0  0  0  0  0  0
  -26.4590  -37.4390   23.7740 N   0  0  0  0  0  0  0  0  0  0  0  0
  -26.0520  -38.3600   23.9040 H   0  0  0  0  0  0  0  0  0  0  0  0
  -30.1690  -17.0210   20.7480 C   0  0  0  0  0  2  0  0  0  0  0  0
  -30.0300  -15.5960   21.3470 C   0  0  0  0  0  2  0  0  0  0  0  0
  -30.6670  -14.4570   20.5100 C   0  0  0  0  0  0  0  0  0  0  0  0
  -30.3610  -12.3650   19.2320 C   0  0  0  0  0  2  0  0  0  0  0  0
  -29.4090  -12.6340   18.0470 C   0  0  0  0  0  2  0  0  0  0  0  0
  -27.9330  -12.5020   18.4790 C   0  0  0  0  0  2  0  0  0  0  0  0
  -27.6180  -13.2810   19.7850 C   0  0  0  0  0  3  0  0  0  0  0  0
  -28.6740  -12.9590   20.8660 C   0  0  0  0  0  2  0  0  0  0  0  0
  -29.9960  -13.2910   20.3140 N   0  0  0  0  0  0  0  0  0  0  0  0
  -31.7620  -14.6760   19.9790 O   0  0  0  0  0  0  0  0  0  0  0  0
  -25.2110  -13.8990   20.4690 C   0  0  0  0  0  0  0  0  0  0  0  0
  -24.1390  -13.1300   20.8340 C   0  0  0  0  0  0  0  0  0  0  0  0
  -24.5990  -11.7780   20.8120 C   0  0  0  0  0  0  0  0  0  0  0  0
  -26.2580  -13.0140   20.2510 N   0  0  0  0  0  0  0  0  0  0  0  0
  -25.8910  -11.7340   20.5110 N   0  0  0  0  0  0  0  0  0  0  0  0
  -23.8710  -10.5170   21.0030 C   0  0  0  0  0  0  0  0  0  0  0  0
  -24.3010   -9.5520   21.9410 C   0  0  0  0  0  3  0  0  0  0  0  0
  -23.5760   -8.3540   22.1200 C   0  0  0  0  0  3  0  0  0  0  0  0
  -22.4060   -8.1140   21.3610 C   0  0  0  0  0  0  0  0  0  0  0  0
  -21.9950   -9.0680   20.4140 C   0  0  0  0  0  3  0  0  0  0  0  0
  -22.7200  -10.2580   20.2330 C   0  0  0  0  0  3  0  0  0  0  0  0
  -21.6520   -6.9690   21.4490 O   0  0  0  0  0  0  0  0  0  0  0  0
  -21.6010   -6.2280   22.6010 C   0  0  0  0  0  0  0  0  0  0  0  0
  -21.1750   -6.7840   23.8280 C   0  0  0  0  0  3  0  0  0  0  0  0
  -21.0720   -5.9690   24.9720 C   0  0  0  0  0  3  0  0  0  0  0  0
  -21.3850   -4.5990   24.8920 C   0  0  0  0  0  0  0  0  0  0  0  0
  -21.8030   -4.0420   23.6700 C   0  0  0  0  0  3  0  0  0  0  0  0
  -21.9080   -4.8540   22.5280 C   0  0  0  0  0  0  0  0  0  0  0  0
  -22.2920   -4.3090   21.3490 F   0  0  0  0  0  0  0  0  0  0  0  0
  -21.2780   -3.8130   25.9890 F   0  0  0  0  0  0  0  0  0  0  0  0
  -22.7410  -13.6120   21.1000 C   0  0  0  0  0  0  0  0  0  0  0  0
  -22.0070  -12.9170   21.9620 N   0  0  0  0  0  0  0  0  0  0  0  0
  -22.3090  -14.6400   20.5810 O   0  0  0  0  0  0  0  0  0  0  0  0
  -22.3670  -12.0840   22.4030 H   0  0  0  0  0  0  0  0  0  0  0  0
  -21.0720  -13.2260   22.1860 H   0  0  0  0  0  0  0  0  0  0  0  0
  -25.3790  -15.2680   20.2860 N   0  0  0  0  0  0  0  0  0  0  0  0
  -24.6150  -15.9270   20.3900 H   0  0  0  0  0  0  0  0  0  0  0  0
  -26.2370  -15.7030   19.9720 H   0  0  0  0  0  0  0  0  0  0  0  0
  1  2  2  0
  2 10  1  0
  2  3  1  0
  3 14  1  0
  4 12  1  0
  5  9  1  0
  7  5  1  0
  7 13  1  0
  8  6  1  0
  9  6  1  0
  9 16  1  0
 11  1  1  0
 11  4  2  0
 12  3  2  0
 13  4  1  0
 13  8  1  0
 15 14  1  0
 17 19  1  0
 17 16  1  0
 18 29  2  0
 19 24  1  0
 20 28  1  0
 20 30  1  0
 21 27  1  0
 21 23  1  0
 22 28  1  0
 23 22  1  0
 24 23  2  0
 25 19  2  0
 26 25  1  0
 26 21  2  0
 27 20  1  0
 28 18  1  0
 30 32  2  0
 31 30  1  0
 33 31  1  0
 34 43  2  0
 34 39  1  0
 35 31  1  0
 35 39  1  0
 36 35  1  0
 37 38  1  0
 37 36  1  0
 38 34  1  0
 39 40  2  0
 40 41  1  0
 42 41  2  0
 43 42  1  0
 44 18  1  0
 44 49  1  0
 44 45  1  0
 45 48  1  1
 45 46  1  0
 47 45  1  0
 49 52  1  0
 50 54  1  0
 50 49  1  0
 51 50  2  0
 54 53  1  0
 56 54  1  0
 56 57  1  0
 56 55  1  0
 58 14  1  0
 58 59  1  0
 60 59  1  0
 61 66  1  0
 62 63  1  0
 62 61  1  0
 64 63  1  0
 64 71  1  0
 64 65  1  0
 66 60  1  0
 66 65  1  0
 67 60  2  0
 68 69  2  0
 69 88  1  0
 70 69  1  0
 70 73  1  0
 71 68  1  0
 71 72  1  0
 72 70  2  0
 73 74  1  0
 74 75  2  0
 76 79  1  0
 76 75  1  0
 77 76  2  0
 78 77  1  0
 78 73  2  0
 79 80  1  0
 80 81  1  0
 81 82  2  0
 83 82  1  0
 83 87  1  0
 84 83  2  0
 85 80  2  0
 85 84  1  0
 86 85  1  0
 88 89  1  0
 89 92  1  0
 89 91  1  0
 90 88  2  0
 93 94  1  0
 93 68  1  0
 95 93  1  0
M  ISO  4  16 101  17 101  59 100  60 100
M  END
>  <TORSDO>  (2) 
F 19

>  <SCORE>  (2) 
-14.292

>  <name>  (2) 
1

>  <ligand_id>  (2) 
1

>  <original_smiles>  (2) 
[H]c1nc(N2C([H])([H])C([H])([H])C([H])(C([H])([H])Oc3c([H])c([H])c4c(c3[H])C([H])([H])N(C(=O)C([H])(N([H])C(=O)C([H])(N([H])C([H])([H])[H])C([H])([H])[H])C(C([H])([H])[H])(C([H])([H])[H])C([H])([H])[H])C([H])(C(=O)N([H])C3([H])c5c([H])c([H])c([H])c([H])c5C([H])([H])C([H])([H])C3([H])[H])C4([H])[H])C([H])([H])C2([H])[H])nc(N([H])C([H])([H])C([H])([H])C(=O)N2C([H])([H])C([H])([H])C([H])([H])C([H])(n3nc(-c4c([H])c([H])c(Oc5c([H])c([H])c(F)c([H])c5F)c([H])c4[H])c(C(=O)N([H])[H])c3N([H])[H])C2([H])[H])c1C([H])([H])[H]

>  <smiles>  (2) 
[H]c1nc(N2C([H])([H])C([H])([H])C([H])(C([H])([H])Oc3c([H])c([H])c4c(c3[H])C([H])([H])N(C(=O)C([H])(N([H])C(=O)C([H])(N([H])C([H])([H])[H])C([H])([H])[H])C(C([H])([H])[H])(C([H])([H])[H])C([H])([H])[H])C([H])(C(=O)N([H])C3([H])c5c([H])c([H])c([H])c([H])c5C([H])([H])C([H])([H])C3([H])[H])C4([H])[H])C([H])([H])C2([H])[H])nc(N([H])C([H])([H])C([H])([H])C(=O)N2C([H])([H])C([H])([H])C([H])([H])C([H])(n3nc(-c4c([H])c([H])c(Oc5c([H])c([H])c(F)c([H])c5F)c([H])c4[H])c(C(=O)N([H])[H])c3N([H])[H])C2([H])[H])c1C([H])([H])[H]

$$$$
2:0:0
     RDKit          3D

 91 99  0  0  1  0  0  0  0  0999 V2000
  -31.2950  -20.7680   18.6690 C   0  0  0  0  0  3  0  0  0  0  0  0
  -30.8960  -21.9590   19.2850 C   0  0  0  0  0  3  0  0  0  0  0  0
  -30.7500  -19.5420   19.0830 C   0  0  0  0  0  3  0  0  0  0  0  0
  -29.4220  -20.7050   20.7690 C   0  0  0  0  0  3  0  0  0  0  0  0
  -29.9450  -21.9590   20.3240 C   0  0  0  0  0  0  0  0  0  0  0  0
  -29.8280  -19.4820   20.1510 C   0  0  0  0  0  0  0  0  0  0  0  0
  -29.5550  -23.3120   20.7970 C   0  0  0  0  0  3  0  0  0  0  0  0
  -28.5880  -23.6720   21.6610 C   0  0  0  0  0  3  0  0  0  0  0  0
  -28.2260  -25.1030   22.0860 C   0  0  0  0  0  2  0  0  0  0  0  0
  -29.0030  -26.2940   21.4500 C   0  0  0  0  0  2  0  0  0  0  0  0
  -28.4790  -26.6920   20.1790 O   0  0  0  0  0  0  0  0  0  0  0  0
  -24.6250  -31.8850   23.2390 C   0  0  0  0  0  0  0  0  0  0  0  0
  -27.3320  -27.4550   20.2050 C   0  0  0  0  0  0  0  0  0  0  0  0
  -23.4420  -30.4660   21.5910 C   0  0  0  0  0  3  0  0  0  0  0  0
  -24.9240  -28.9320   20.1860 C   0  0  0  0  0  0  0  0  0  0  0  0
  -25.9650  -30.8420   21.4180 C   0  0  0  0  0  2  0  0  0  0  0  0
  -26.0680  -29.4680   20.7900 C   0  0  0  0  0  0  0  0  0  0  0  0
  -27.2760  -28.7360   20.8060 C   0  0  0  0  0  3  0  0  0  0  0  0
  -26.1810  -26.9380   19.5830 C   0  0  0  0  0  3  0  0  0  0  0  0
  -24.9720  -27.6640   19.5800 C   0  0  0  0  0  3  0  0  0  0  0  0
  -23.6700  -29.7780   20.2170 C   0  0  0  0  0  2  0  0  0  0  0  0
  -24.6960  -31.0750   22.1450 N   0  0  0  0  0  0  0  0  0  0  0  0
  -23.5330  -32.1750   23.7460 O   0  0  0  0  0  0  0  0  0  0  0  0
  -22.7850  -29.4460   22.5480 C   0  0  0  0  0  0  0  0  0  0  0  0
  -21.4620  -29.2670   22.4180 N   0  0  0  0  0  0  0  0  0  0  0  0
  -23.4650  -28.8160   23.3630 O   0  0  0  0  0  0  0  0  0  0  0  0
  -20.9750  -29.8260   21.7290 H   0  0  0  0  0  0  0  0  0  0  0  0
  -18.0800  -28.0940   22.9150 C   0  0  0  0  0  0  0  0  0  0  0  0
  -20.6400  -28.3280   23.1810 C   0  0  0  0  0  3  0  0  0  0  0  0
  -20.7310  -26.9040   22.5890 C   0  0  0  0  0  2  0  0  0  0  0  0
  -19.6230  -26.6010   21.5760 C   0  0  0  0  0  2  0  0  0  0  0  0
  -18.2440  -26.7510   22.2250 C   0  0  0  0  0  2  0  0  0  0  0  0
  -19.2070  -28.8420   23.3510 C   0  0  0  0  0  0  0  0  0  0  0  0
  -19.0020  -30.1010   23.9550 C   0  0  0  0  0  3  0  0  0  0  0  0
  -17.7030  -30.6140   24.1290 C   0  0  0  0  0  3  0  0  0  0  0  0
  -16.5900  -29.8630   23.7120 C   0  0  0  0  0  3  0  0  0  0  0  0
  -16.7790  -28.6050   23.1110 C   0  0  0  0  0  3  0  0  0  0  0  0
  -25.9040  -32.5130   23.8780 C   0  0  0  0  0  3  0  0  0  0  0  0
  -25.5910  -33.9090   24.2080 N   0  0  0  0  0  0  0  0  0  0  0  0
  -25.9100  -34.9610   23.4440 C   0  0  0  0  0  0  0  0  0  0  0  0
  -26.5770  -34.8600   22.4100 O   0  0  0  0  0  0  0  0  0  0  0  0
  -25.0030  -34.0610   25.0140 H   0  0  0  0  0  0  0  0  0  0  0  0
  -24.1650  -36.7350   23.0960 C   0  0  0  0  0  1  0  0  0  0  0  0
  -25.4150  -36.3460   23.9010 C   0  0  0  0  0  3  0  0  0  0  0  0
  -27.5480  -37.2540   24.7110 C   0  0  0  0  0  1  0  0  0  0  0  0
  -26.4380  -37.4070   23.7740 N   0  0  0  0  0  0  0  0  0  0  0  0
  -26.0240  -38.3240   23.9160 H   0  0  0  0  0  0  0  0  0  0  0  0
  -26.4150  -31.7370   25.1530 C   0  0  1  0  0  0  0  0  0  0  0  0
  -25.3150  -31.4900   26.2100 C   0  0  0  0  0  1  0  0  0  0  0  0
  -27.0080  -30.3640   24.7560 C   0  0  0  0  0  1  0  0  0  0  0  0
  -27.5560  -32.5340   25.8260 C   0  0  0  0  0  1  0  0  0  0  0  0
  -29.2590  -18.0950   20.5290 C   0  0  0  0  0  2  0  0  0  0  0  0
  -30.3370  -17.0300   20.9220 C   0  0  0  0  0  2  0  0  0  0  0  0
  -30.6350  -14.5600   20.4660 C   0  0  0  0  0  0  0  0  0  0  0  0
  -30.3760  -12.3920   19.3140 C   0  0  0  0  0  2  0  0  0  0  0  0
  -29.4360  -12.5840   18.1060 C   0  0  0  0  0  2  0  0  0  0  0  0
  -27.9620  -12.4330   18.5330 C   0  0  0  0  0  2  0  0  0  0  0  0
  -27.6170  -13.2620   19.8000 C   0  0  0  0  0  3  0  0  0  0  0  0
  -28.6700  -13.0450   20.9090 C   0  0  0  0  0  2  0  0  0  0  0  0
  -29.9830  -13.3720   20.3410 N   0  0  0  0  0  0  0  0  0  0  0  0
  -31.7860  -14.7240   20.0510 O   0  0  0  0  0  0  0  0  0  0  0  0
  -29.8910  -15.6110   20.9020 N   0  0  0  0  0  0  0  0  0  0  0  0
  -28.9460  -15.4160   21.2000 H   0  0  0  0  0  0  0  0  0  0  0  0
  -25.2170  -13.8580   20.5060 C   0  0  0  0  0  0  0  0  0  0  0  0
  -24.1540  -13.0810   20.8740 C   0  0  0  0  0  0  0  0  0  0  0  0
  -24.6210  -11.7310   20.8440 C   0  0  0  0  0  0  0  0  0  0  0  0
  -26.2670  -12.9820   20.2780 N   0  0  0  0  0  0  0  0  0  0  0  0
  -25.9110  -11.6980   20.5400 N   0  0  0  0  0  0  0  0  0  0  0  0
  -23.8980  -10.4640   21.0310 C   0  0  0  0  0  0  0  0  0  0  0  0
  -24.3300   -9.5040   21.9730 C   0  0  0  0  0  3  0  0  0  0  0  0
  -23.6130   -8.3020   22.1530 C   0  0  0  0  0  3  0  0  0  0  0  0
  -22.4470   -8.0530   21.3890 C   0  0  0  0  0  0  0  0  0  0  0  0
  -22.0320   -9.0020   20.4380 C   0  0  0  0  0  3  0  0  0  0  0  0
  -22.7520  -10.1960   20.2570 C   0  0  0  0  0  3  0  0  0  0  0  0
  -21.7030   -6.9020   21.4750 O   0  0  0  0  0  0  0  0  0  0  0  0
  -21.6470   -6.1650   22.6300 C   0  0  0  0  0  0  0  0  0  0  0  0
  -21.1990   -6.7210   23.8480 C   0  0  0  0  0  3  0  0  0  0  0  0
  -21.0910   -5.9090   24.9950 C   0  0  0  0  0  3  0  0  0  0  0  0
  -21.4240   -4.5420   24.9240 C   0  0  0  0  0  0  0  0  0  0  0  0
  -21.8640   -3.9860   23.7100 C   0  0  0  0  0  3  0  0  0  0  0  0
  -21.9710   -4.7940   22.5660 C   0  0  0  0  0  0  0  0  0  0  0  0
  -22.3780   -4.2500   21.3930 F   0  0  0  0  0  0  0  0  0  0  0  0
  -21.3110   -3.7590   26.0220 F   0  0  0  0  0  0  0  0  0  0  0  0
  -22.7530  -13.5490   21.1430 C   0  0  0  0  0  0  0  0  0  0  0  0
  -22.0280  -12.8450   22.0050 N   0  0  0  0  0  0  0  0  0  0  0  0
  -22.3090  -14.5730   20.6240 O   0  0  0  0  0  0  0  0  0  0  0  0
  -22.4030  -12.0190   22.4490 H   0  0  0  0  0  0  0  0  0  0  0  0
  -21.0870  -13.1360   22.2260 H   0  0  0  0  0  0  0  0  0  0  0  0
  -25.3780  -15.2280   20.3250 N   0  0  0  0  0  0  0  0  0  0  0  0
  -24.6070  -15.8780   20.4270 H   0  0  0  0  0  0  0  0  0  0  0  0
  -26.2170  -15.6650   19.9650 H   0  0  0  0  0  0  0  0  0  0  0  0
  1  3  2  0
  1  2  1  0
  2  5  2  0
  3  6  1  0
  5  4  1  0
  5  7  1  0
  6 52  1  0
  6  4  2  0
  7  8  2  0
  8  9  1  0
 10  9  1  0
 11 13  1  0
 11 10  1  0
 12 23  2  0
 13 18  1  0
 14 22  1  0
 14 24  1  0
 15 21  1  0
 15 17  1  0
 16 22  1  0
 17 18  2  0
 17 16  1  0
 19 13  2  0
 20 19  1  0
 20 15  2  0
 21 14  1  0
 22 12  1  0
 24 26  2  0
 25 24  1  0
 27 25  1  0
 28 37  2  0
 28 33  1  0
 29 25  1  0
 29 33  1  0
 30 29  1  0
 31 32  1  0
 31 30  1  0
 32 28  1  0
 33 34  2  0
 34 35  1  0
 36 35  2  0
 37 36  1  0
 38 12  1  0
 38 39  1  0
 38 48  1  0
 39 42  1  0
 40 44  1  0
 40 39  1  0
 41 40  2  0
 44 43  1  0
 46 44  1  0
 46 47  1  0
 46 45  1  0
 48 51  1  1
 48 49  1  0
 50 48  1  0
 52 53  1  0
 54 62  1  0
 55 60  1  0
 56 57  1  0
 56 55  1  0
 58 57  1  0
 58 67  1  0
 58 59  1  0
 60 54  1  0
 60 59  1  0
 61 54  2  0
 62 53  1  0
 62 63  1  0
 64 65  2  0
 65 84  1  0
 66 65  1  0
 66 69  1  0
 67 64  1  0
 67 68  1  0
 68 66  2  0
 69 70  1  0
 70 71  2  0
 72 75  1  0
 72 71  1  0
 73 72  2  0
 74 73  1  0
 74 69  2  0
 75 76  1  0
 76 77  1  0
 77 78  2  0
 79 78  1  0
 79 83  1  0
 80 79  2  0
 81 76  2  0
 81 80  1  0
 82 81  1  0
 84 85  1  0
 85 88  1  0
 85 87  1  0
 86 84  2  0
 89 90  1  0
 89 64  1  0
 91 89  1  0
M  ISO  4  10 101  11 101  54 100  62 100
M  END
>  <TORSDO>  (3) 
F 21

>  <SCORE>  (3) 
-13.642

>  <name>  (3) 
2

>  <ligand_id>  (3) 
2

>  <original_smiles>  (3) 
[H]C(=C([H])C([H])([H])C([H])([H])Oc1c([H])c([H])c2c(c1[H])C([H])([H])N(C(=O)C([H])(N([H])C(=O)C([H])(N([H])C([H])([H])[H])C([H])([H])[H])C(C([H])([H])[H])(C([H])([H])[H])C([H])([H])[H])C([H])(C(=O)N([H])C1([H])c3c([H])c([H])c([H])c([H])c3C([H])([H])C([H])([H])C1([H])[H])C2([H])[H])c1c([H])c([H])c([H])c(C([H])([H])C([H])([H])N([H])C(=O)N2C([H])([H])C([H])([H])C([H])([H])C([H])(n3nc(-c4c([H])c([H])c(Oc5c([H])c([H])c(F)c([H])c5F)c([H])c4[H])c(C(=O)N([H])[H])c3N([H])[H])C2([H])[H])c1[H]

>  <smiles>  (3) 
[H]C(=C([H])C([H])([H])C([H])([H])Oc1c([H])c([H])c2c(c1[H])C([H])([H])N(C(=O)C([H])(N([H])C(=O)C([H])(N([H])C([H])([H])[H])C([H])([H])[H])C(C([H])([H])[H])(C([H])([H])[H])C([H])([H])[H])C([H])(C(=O)N([H])C1([H])c3c([H])c([H])c([H])c([H])c3C([H])([H])C([H])([H])C1([H])[H])C2([H])[H])c1c([H])c([H])c([H])c(C([H])([H])C([H])([H])N([H])C(=O)N2C([H])([H])C([H])([H])C([H])([H])C([H])(n3nc(-c4c([H])c([H])c(Oc5c([H])c([H])c(F)c([H])c5F)c([H])c4[H])c(C(=O)N([H])[H])c3N([H])[H])C2([H])[H])c1[H]

$$$$
3:0:0
     RDKit          3D

 95104  0  0  1  0  0  0  0  0999 V2000
  -32.6140  -23.3170   19.5210 C   0  0  0  0  0  2  0  0  0  0  0  0
  -31.7600  -24.0820   18.5270 C   0  0  0  0  0  2  0  0  0  0  0  0
  -31.8530  -22.0590   19.9240 C   0  0  0  0  0  2  0  0  0  0  0  0
  -30.4720  -24.4930   19.2290 C   0  0  0  0  0  2  0  0  0  0  0  0
  -30.4010  -22.2440   20.4730 C   0  0  0  0  0  3  0  0  0  0  0  0
  -29.6420  -23.3470   19.7130 N   0  0  1  0  0  4  0  0  0  0  0  0
  -29.3610  -22.8740   18.8660 H   0  0  0  0  0  0  0  0  0  0  0  0
  -29.1460  -18.4750   19.6790 C   0  0  0  0  0  3  0  0  0  0  0  0
  -29.9380  -18.3770   20.7940 C   0  0  0  0  0  0  0  0  0  0  0  0
  -30.2860  -19.7110   21.2780 C   0  0  0  0  0  0  0  0  0  0  0  0
  -29.8710  -20.7750   20.4700 C   0  0  0  0  0  0  0  0  0  0  0  0
  -31.1270  -19.9020   22.5130 C   0  0  0  0  0  1  0  0  0  0  0  0
  -28.8850  -20.1390   19.1730 S   0  0  0  0  0  0  0  0  0  0  0  0
  -30.4480  -17.0480   21.4210 C   0  0  0  0  0  2  0  0  0  0  0  0
  -30.6490  -14.6540   20.4980 C   0  0  0  0  0  0  0  0  0  0  0  0
  -30.4060  -12.4490   19.3690 C   0  0  0  0  0  2  0  0  0  0  0  0
  -29.4620  -12.5850   18.1540 C   0  0  0  0  0  2  0  0  0  0  0  0
  -27.9900  -12.4270   18.5860 C   0  0  0  0  0  2  0  0  0  0  0  0
  -27.6340  -13.2770   19.8350 C   0  0  0  0  0  3  0  0  0  0  0  0
  -28.6920  -13.1100   20.9460 C   0  0  0  0  0  2  0  0  0  0  0  0
  -29.9960  -13.4580   20.3640 N   0  0  0  0  0  0  0  0  0  0  0  0
  -31.8070  -14.7970   20.1000 O   0  0  0  0  0  0  0  0  0  0  0  0
  -29.9290  -15.7160   20.9630 N   0  0  0  0  0  0  0  0  0  0  0  0
  -28.9670  -15.5220   21.1990 H   0  0  0  0  0  0  0  0  0  0  0  0
  -25.2370  -13.8670   20.5530 C   0  0  0  0  0  0  0  0  0  0  0  0
  -24.1720  -13.0910   20.9210 C   0  0  0  0  0  0  0  0  0  0  0  0
  -24.6400  -11.7400   20.8880 C   0  0  0  0  0  0  0  0  0  0  0  0
  -26.2850  -12.9910   20.3180 N   0  0  0  0  0  0  0  0  0  0  0  0
  -25.9300  -11.7060   20.5800 N   0  0  0  0  0  0  0  0  0  0  0  0
  -23.9190  -10.4740   21.0780 C   0  0  0  0  0  0  0  0  0  0  0  0
  -24.3600   -9.5040   22.0040 C   0  0  0  0  0  3  0  0  0  0  0  0
  -23.6400   -8.3030   22.1820 C   0  0  0  0  0  3  0  0  0  0  0  0
  -22.4640   -8.0640   21.4300 C   0  0  0  0  0  0  0  0  0  0  0  0
  -22.0430   -9.0230   20.4930 C   0  0  0  0  0  3  0  0  0  0  0  0
  -22.7660  -10.2140   20.3140 C   0  0  0  0  0  3  0  0  0  0  0  0
  -21.7150   -6.9150   21.5150 O   0  0  0  0  0  0  0  0  0  0  0  0
  -21.6790   -6.1610   22.6600 C   0  0  0  0  0  0  0  0  0  0  0  0
  -21.2590   -6.7010   23.8940 C   0  0  0  0  0  3  0  0  0  0  0  0
  -21.1690   -5.8730   25.0310 C   0  0  0  0  0  3  0  0  0  0  0  0
  -21.4910   -4.5070   24.9360 C   0  0  0  0  0  0  0  0  0  0  0  0
  -21.9040   -3.9650   23.7070 C   0  0  0  0  0  3  0  0  0  0  0  0
  -21.9940   -4.7890   22.5700 C   0  0  0  0  0  0  0  0  0  0  0  0
  -22.3700   -4.2570   21.3840 F   0  0  0  0  0  0  0  0  0  0  0  0
  -21.4000   -3.7100   26.0290 F   0  0  0  0  0  0  0  0  0  0  0  0
  -22.7720  -13.5610   21.1910 C   0  0  0  0  0  0  0  0  0  0  0  0
  -22.0440  -12.8580   22.0540 N   0  0  0  0  0  0  0  0  0  0  0  0
  -22.3320  -14.5850   20.6740 O   0  0  0  0  0  0  0  0  0  0  0  0
  -22.4150  -12.0330   22.4980 H   0  0  0  0  0  0  0  0  0  0  0  0
  -21.1050  -13.1570   22.2740 H   0  0  0  0  0  0  0  0  0  0  0  0
  -25.3970  -15.2390   20.3770 N   0  0  0  0  0  0  0  0  0  0  0  0
  -24.6350  -15.8960   20.4930 H   0  0  0  0  0  0  0  0  0  0  0  0
  -26.2440  -15.6770   20.0380 H   0  0  0  0  0  0  0  0  0  0  0  0
  -28.3500  -23.8950   20.2900 C   0  0  0  0  0  2  0  0  0  0  0  0
  -28.3510  -25.3190   21.0160 C   0  0  0  0  0  2  0  0  0  0  0  0
  -28.4190  -26.5780   20.2500 O   0  0  0  0  0  0  0  0  0  0  0  0
  -24.6180  -31.9120   23.2610 C   0  0  0  0  0  0  0  0  0  0  0  0
  -27.2840  -27.3890   20.2430 C   0  0  0  0  0  0  0  0  0  0  0  0
  -23.4330  -30.4960   21.6200 C   0  0  0  0  0  3  0  0  0  0  0  0
  -24.9050  -28.9520   20.2100 C   0  0  0  0  0  0  0  0  0  0  0  0
  -25.9690  -30.8410   21.4520 C   0  0  0  0  0  2  0  0  0  0  0  0
  -26.0630  -29.4650   20.8090 C   0  0  0  0  0  0  0  0  0  0  0  0
  -27.2600  -28.6940   20.8140 C   0  0  0  0  0  3  0  0  0  0  0  0
  -26.1090  -26.9120   19.6290 C   0  0  0  0  0  3  0  0  0  0  0  0
  -24.9280  -27.6810   19.6110 C   0  0  0  0  0  3  0  0  0  0  0  0
  -23.6600  -29.8140   20.2440 C   0  0  0  0  0  2  0  0  0  0  0  0
  -24.6920  -31.0960   22.1710 N   0  0  0  0  0  0  0  0  0  0  0  0
  -23.5260  -32.2080   23.7630 O   0  0  0  0  0  0  0  0  0  0  0  0
  -22.7720  -29.4780   22.5780 C   0  0  0  0  0  0  0  0  0  0  0  0
  -21.4490  -29.2880   22.4370 N   0  0  0  0  0  0  0  0  0  0  0  0
  -23.4470  -28.8600   23.4060 O   0  0  0  0  0  0  0  0  0  0  0  0
  -20.9650  -29.8360   21.7410 H   0  0  0  0  0  0  0  0  0  0  0  0
  -18.0750  -28.0730   22.9050 C   0  0  0  0  0  0  0  0  0  0  0  0
  -20.6290  -28.3460   23.1990 C   0  0  0  0  0  3  0  0  0  0  0  0
  -20.7450  -26.9150   22.6240 C   0  0  0  0  0  2  0  0  0  0  0  0
  -19.6550  -26.5870   21.5980 C   0  0  0  0  0  2  0  0  0  0  0  0
  -18.2660  -26.7240   22.2290 C   0  0  0  0  0  2  0  0  0  0  0  0
  -19.1850  -28.8400   23.3460 C   0  0  0  0  0  0  0  0  0  0  0  0
  -18.9550  -30.1020   23.9360 C   0  0  0  0  0  3  0  0  0  0  0  0
  -17.6460  -30.5970   24.0900 C   0  0  0  0  0  3  0  0  0  0  0  0
  -16.5490  -29.8260   23.6660 C   0  0  0  0  0  3  0  0  0  0  0  0
  -16.7650  -28.5660   23.0790 C   0  0  0  0  0  3  0  0  0  0  0  0
  -25.8960  -32.5390   23.9030 C   0  0  0  0  0  3  0  0  0  0  0  0
  -26.3920  -31.7770   25.1940 C   0  0  1  0  0  0  0  0  0  0  0  0
  -25.2830  -31.5530   26.2460 C   0  0  0  0  0  1  0  0  0  0  0  0
  -26.9780  -30.3940   24.8230 C   0  0  0  0  0  1  0  0  0  0  0  0
  -27.5330  -32.5750   25.8690 C   0  0  0  0  0  1  0  0  0  0  0  0
  -25.5870  -33.9410   24.2190 N   0  0  0  0  0  0  0  0  0  0  0  0
  -25.9230  -34.9860   23.4520 C   0  0  0  0  0  0  0  0  0  0  0  0
  -26.5980  -34.8730   22.4260 O   0  0  0  0  0  0  0  0  0  0  0  0
  -24.9870  -34.1010   25.0150 H   0  0  0  0  0  0  0  0  0  0  0  0
  -24.1910  -36.7720   23.0740 C   0  0  0  0  0  1  0  0  0  0  0  0
  -25.4310  -36.3780   23.8920 C   0  0  0  0  0  3  0  0  0  0  0  0
  -27.5620  -37.2760   24.7200 C   0  0  0  0  0  1  0  0  0  0  0  0
  -26.4620  -37.4310   23.7720 N   0  0  0  0  0  0  0  0  0  0  0  0
  -26.0530  -38.3510   23.9090 H   0  0  0  0  0  0  0  0  0  0  0  0
  1  3  1  0
  2  4  1  0
  2  1  1  0
  3  5  1  0
  4  6  1  0
  5 11  1  0
  6 53  1  0
  6  5  1  0
  6  7  1  6
  8  9  2  0
  9 10  1  0
  9 14  1  0
 10 12  1  0
 11 10  2  0
 13  8  1  0
 13 11  1  0
 15 23  1  0
 16 21  1  0
 17 18  1  0
 17 16  1  0
 19 18  1  0
 19 28  1  0
 19 20  1  0
 21 15  1  0
 21 20  1  0
 22 15  2  0
 23 24  1  0
 23 14  1  0
 25 26  2  0
 26 45  1  0
 27 26  1  0
 27 30  1  0
 28 25  1  0
 28 29  1  0
 29 27  2  0
 30 31  1  0
 31 32  2  0
 33 36  1  0
 33 32  1  0
 34 33  2  0
 35 34  1  0
 35 30  2  0
 36 37  1  0
 37 38  1  0
 38 39  2  0
 40 39  1  0
 40 44  1  0
 41 40  2  0
 42 37  2  0
 42 41  1  0
 43 42  1  0
 45 46  1  0
 46 49  1  0
 46 48  1  0
 47 45  2  0
 50 51  1  0
 50 25  1  0
 52 50  1  0
 53 54  1  0
 55 54  1  0
 56 67  2  0
 57 55  1  0
 57 62  1  0
 58 66  1  0
 58 68  1  0
 59 65  1  0
 59 61  1  0
 60 66  1  0
 61 62  2  0
 61 60  1  0
 63 57  2  0
 64 63  1  0
 64 59  2  0
 65 58  1  0
 66 56  1  0
 68 70  2  0
 69 68  1  0
 71 69  1  0
 72 81  2  0
 72 77  1  0
 73 69  1  0
 73 77  1  0
 74 73  1  0
 75 76  1  0
 75 74  1  0
 76 72  1  0
 77 78  2  0
 78 79  1  0
 80 79  2  0
 81 80  1  0
 82 56  1  0
 82 87  1  0
 82 83  1  0
 83 86  1  1
 83 84  1  0
 85 83  1  0
 87 90  1  0
 88 92  1  0
 88 87  1  0
 89 88  2  0
 92 91  1  0
 94 92  1  0
 94 95  1  0
 94 93  1  0
M  ISO  4  15 100  23 100  54 101  55 101
M  END
>  <TORSDO>  (4) 
F 20

>  <SCORE>  (4) 
-14.141

>  <name>  (4) 
3

>  <ligand_id>  (4) 
3

>  <original_smiles>  (4) 
[H]c1sc(C2([H])C([H])([H])C([H])([H])C([H])([H])C([H])([H])[N+]2([H])C([H])([H])C([H])([H])Oc2c([H])c([H])c3c(c2[H])C([H])([H])N(C(=O)C([H])(N([H])C(=O)C([H])(N([H])C([H])([H])[H])C([H])([H])[H])C(C([H])([H])[H])(C([H])([H])[H])C([H])([H])[H])C([H])(C(=O)N([H])C2([H])c4c([H])c([H])c([H])c([H])c4C([H])([H])C([H])([H])C2([H])[H])C3([H])[H])c(C([H])([H])[H])c1C([H])([H])N([H])C(=O)N1C([H])([H])C([H])([H])C([H])([H])C([H])(n2nc(-c3c([H])c([H])c(Oc4c([H])c([H])c(F)c([H])c4F)c([H])c3[H])c(C(=O)N([H])[H])c2N([H])[H])C1([H])[H]

>  <smiles>  (4) 
[H]c1sc(C2([H])C([H])([H])C([H])([H])C([H])([H])C([H])([H])[N+]2([H])C([H])([H])C([H])([H])Oc2c([H])c([H])c3c(c2[H])C([H])([H])N(C(=O)C([H])(N([H])C(=O)C([H])(N([H])C([H])([H])[H])C([H])([H])[H])C(C([H])([H])[H])(C([H])([H])[H])C([H])([H])[H])C([H])(C(=O)N([H])C2([H])c4c([H])c([H])c([H])c([H])c4C([H])([H])C([H])([H])C2([H])[H])C3([H])[H])c(C([H])([H])[H])c1C([H])([H])N([H])C(=O)N1C([H])([H])C([H])([H])C([H])([H])C([H])(n2nc(-c3c([H])c([H])c(Oc4c([H])c([H])c(F)c([H])c4F)c([H])c3[H])c(C(=O)N([H])[H])c2N([H])[H])C1([H])[H]

$$$$
4:0:0
     RDKit          3D

 92 99  0  0  1  0  0  0  0  0999 V2000
  -29.0620  -20.5140   19.8670 C   0  0  0  0  0  0  0  0  0  0  0  0
  -28.3390  -19.7290   18.7900 C   0  0  0  0  0  1  0  0  0  0  0  0
  -28.7240  -21.7650   20.0030 N   0  0  0  0  0  0  0  0  0  0  0  0
  -29.2680  -22.7130   20.9940 C   0  0  0  0  0  2  0  0  0  0  0  0
  -29.4050  -24.2070   20.4860 C   0  0  0  0  0  3  0  0  0  0  0  0
  -28.1190  -25.0920   20.3220 C   0  0  0  0  0  3  0  0  0  0  0  0
  -28.3320  -26.5430   20.2400 O   0  0  0  0  0  0  0  0  0  0  0  0
  -24.6010  -31.9030   23.2510 C   0  0  0  0  0  0  0  0  0  0  0  0
  -27.1960  -27.3560   20.2060 C   0  0  0  0  0  0  0  0  0  0  0  0
  -23.3870  -30.4980   21.6260 C   0  0  0  0  0  3  0  0  0  0  0  0
  -24.8270  -28.9440   20.2020 C   0  0  0  0  0  0  0  0  0  0  0  0
  -25.9250  -30.8180   21.4320 C   0  0  0  0  0  2  0  0  0  0  0  0
  -25.9980  -29.4410   20.7880 C   0  0  0  0  0  0  0  0  0  0  0  0
  -27.1880  -28.6600   20.7770 C   0  0  0  0  0  3  0  0  0  0  0  0
  -26.0010  -26.8990   19.6040 C   0  0  0  0  0  3  0  0  0  0  0  0
  -24.8280  -27.6770   19.6020 C   0  0  0  0  0  3  0  0  0  0  0  0
  -23.5930  -29.8190   20.2480 C   0  0  0  0  0  2  0  0  0  0  0  0
  -24.6580  -31.0860   22.1610 N   0  0  0  0  0  0  0  0  0  0  0  0
  -23.5150  -32.2100   23.7640 O   0  0  0  0  0  0  0  0  0  0  0  0
  -22.7270  -29.4830   22.5890 C   0  0  0  0  0  0  0  0  0  0  0  0
  -21.4010  -29.3020   22.4580 N   0  0  0  0  0  0  0  0  0  0  0  0
  -23.4040  -28.8620   23.4110 O   0  0  0  0  0  0  0  0  0  0  0  0
  -20.9140  -29.8560   21.7670 H   0  0  0  0  0  0  0  0  0  0  0  0
  -18.0240  -28.1020   22.9460 C   0  0  0  0  0  0  0  0  0  0  0  0
  -20.5800  -28.3680   23.2300 C   0  0  0  0  0  3  0  0  0  0  0  0
  -20.6880  -26.9320   22.6680 C   0  0  0  0  0  2  0  0  0  0  0  0
  -19.5930  -26.6000   21.6490 C   0  0  0  0  0  2  0  0  0  0  0  0
  -18.2070  -26.7480   22.2820 C   0  0  0  0  0  2  0  0  0  0  0  0
  -19.1380  -28.8700   23.3760 C   0  0  0  0  0  0  0  0  0  0  0  0
  -18.9130  -30.1380   23.9560 C   0  0  0  0  0  3  0  0  0  0  0  0
  -17.6070  -30.6370   24.1090 C   0  0  0  0  0  3  0  0  0  0  0  0
  -16.5060  -29.8680   23.6930 C   0  0  0  0  0  3  0  0  0  0  0  0
  -16.7160  -28.6030   23.1180 C   0  0  0  0  0  3  0  0  0  0  0  0
  -25.8890  -32.5220   23.8790 C   0  0  0  0  0  3  0  0  0  0  0  0
  -25.5880  -33.9210   24.2110 N   0  0  0  0  0  0  0  0  0  0  0  0
  -25.9160  -34.9710   23.4450 C   0  0  0  0  0  0  0  0  0  0  0  0
  -26.5780  -34.8630   22.4100 O   0  0  0  0  0  0  0  0  0  0  0  0
  -25.0000  -34.0810   25.0150 H   0  0  0  0  0  0  0  0  0  0  0  0
  -24.1870  -36.7650   23.1010 C   0  0  0  0  0  1  0  0  0  0  0  0
  -25.4350  -36.3620   23.9020 C   0  0  0  0  0  3  0  0  0  0  0  0
  -27.5780  -37.2440   24.7100 C   0  0  0  0  0  1  0  0  0  0  0  0
  -26.4670  -37.4130   23.7770 N   0  0  0  0  0  0  0  0  0  0  0  0
  -26.0650  -38.3340   23.9240 H   0  0  0  0  0  0  0  0  0  0  0  0
  -26.4000  -31.7480   25.1560 C   0  0  1  0  0  0  0  0  0  0  0  0
  -25.3030  -31.5170   26.2200 C   0  0  0  0  0  1  0  0  0  0  0  0
  -26.9780  -30.3680   24.7640 C   0  0  0  0  0  1  0  0  0  0  0  0
  -27.5560  -32.5350   25.8190 C   0  0  0  0  0  1  0  0  0  0  0  0
  -30.1530  -19.6660   20.6250 C   0  0  0  0  0  3  0  0  0  0  0  0
  -30.6450  -14.5860   20.4530 C   0  0  0  0  0  0  0  0  0  0  0  0
  -30.3680  -12.3790   19.3650 C   0  0  0  0  0  2  0  0  0  0  0  0
  -29.4300  -12.5380   18.1470 C   0  0  0  0  0  2  0  0  0  0  0  0
  -27.9560  -12.3960   18.5730 C   0  0  0  0  0  2  0  0  0  0  0  0
  -27.6060  -13.2460   19.8240 C   0  0  0  0  0  3  0  0  0  0  0  0
  -28.6630  -13.0800   20.9400 C   0  0  0  0  0  2  0  0  0  0  0  0
  -29.9780  -13.3940   20.3640 N   0  0  0  0  0  0  0  0  0  0  0  0
  -31.7940  -14.7350   20.0240 O   0  0  0  0  0  0  0  0  0  0  0  0
  -30.3500  -17.0460   20.5690 C   0  0  0  0  0  2  0  0  0  0  0  0
  -29.8900  -15.7790   20.8310 N   0  0  0  0  0  0  0  0  0  0  0  0
  -29.7060  -18.2320   20.8600 N   0  0  0  0  0  0  0  0  0  0  0  0
  -28.9680  -15.7110   21.2220 H   0  0  0  0  0  0  0  0  0  0  0  0
  -28.8240  -18.1810   21.3500 H   0  0  0  0  0  0  0  0  0  0  0  0
  -25.2120  -13.8470   20.5380 C   0  0  0  0  0  0  0  0  0  0  0  0
  -24.1470  -13.0730   20.9100 C   0  0  0  0  0  0  0  0  0  0  0  0
  -24.6090  -11.7220   20.8810 C   0  0  0  0  0  0  0  0  0  0  0  0
  -26.2570  -12.9660   20.3050 N   0  0  0  0  0  0  0  0  0  0  0  0
  -25.8980  -11.6830   20.5720 N   0  0  0  0  0  0  0  0  0  0  0  0
  -23.8830  -10.4600   21.0730 C   0  0  0  0  0  0  0  0  0  0  0  0
  -24.3250   -9.4870   21.9960 C   0  0  0  0  0  3  0  0  0  0  0  0
  -23.6010   -8.2900   22.1760 C   0  0  0  0  0  3  0  0  0  0  0  0
  -22.4170   -8.0580   21.4350 C   0  0  0  0  0  0  0  0  0  0  0  0
  -21.9940   -9.0190   20.5010 C   0  0  0  0  0  3  0  0  0  0  0  0
  -22.7190  -10.2080   20.3180 C   0  0  0  0  0  3  0  0  0  0  0  0
  -21.6640   -6.9130   21.5230 O   0  0  0  0  0  0  0  0  0  0  0  0
  -21.6410   -6.1520   22.6660 C   0  0  0  0  0  0  0  0  0  0  0  0
  -21.2540   -6.6910   23.9110 C   0  0  0  0  0  3  0  0  0  0  0  0
  -21.1780   -5.8590   25.0460 C   0  0  0  0  0  3  0  0  0  0  0  0
  -21.4800   -4.4890   24.9350 C   0  0  0  0  0  0  0  0  0  0  0  0
  -21.8600   -3.9490   23.6940 C   0  0  0  0  0  3  0  0  0  0  0  0
  -21.9390   -4.7780   22.5620 C   0  0  0  0  0  0  0  0  0  0  0  0
  -22.2850   -4.2490   21.3650 F   0  0  0  0  0  0  0  0  0  0  0  0
  -21.4000   -3.6860   26.0240 F   0  0  0  0  0  0  0  0  0  0  0  0
  -22.7480  -13.5510   21.1790 C   0  0  0  0  0  0  0  0  0  0  0  0
  -22.0200  -12.8550   22.0460 N   0  0  0  0  0  0  0  0  0  0  0  0
  -22.3100  -14.5750   20.6560 O   0  0  0  0  0  0  0  0  0  0  0  0
  -22.3890  -12.0280   22.4900 H   0  0  0  0  0  0  0  0  0  0  0  0
  -21.0800  -13.1530   22.2640 H   0  0  0  0  0  0  0  0  0  0  0  0
  -25.3760  -15.2160   20.3500 N   0  0  0  0  0  0  0  0  0  0  0  0
  -24.5970  -15.8600   20.4330 H   0  0  0  0  0  0  0  0  0  0  0  0
  -26.1820  -15.6350   19.9060 H   0  0  0  0  0  0  0  0  0  0  0  0
  -31.9650  -21.0670   19.3060 C   0  0  0  0  0  1  0  0  0  0  0  0
  -32.6680  -19.3350   20.9660 C   0  0  0  0  0  1  0  0  0  0  0  0
  -31.5680  -19.7220   19.9570 C   0  0  0  0  0  3  0  0  0  0  0  0
  1  3  2  0
  2  1  1  0
  3  4  1  0
  5  4  1  0
  6  5  2  0
  7  6  1  0
  8 19  2  0
  9  7  1  0
  9 14  1  0
 10 18  1  0
 10 20  1  0
 11 17  1  0
 11 13  1  0
 12 18  1  0
 13 12  1  0
 14 13  2  0
 15  9  2  0
 16 15  1  0
 16 11  2  0
 17 10  1  0
 18  8  1  0
 20 22  2  0
 21 20  1  0
 23 21  1  0
 24 33  2  0
 24 29  1  0
 25 21  1  0
 25 29  1  0
 26 25  1  0
 27 28  1  0
 27 26  1  0
 28 24  1  0
 29 30  2  0
 30 31  1  0
 32 31  2  0
 33 32  1  0
 34  8  1  0
 34 35  1  0
 34 44  1  0
 35 38  1  0
 36 40  1  0
 36 35  1  0
 37 36  2  0
 40 39  1  0
 42 40  1  0
 42 43  1  0
 42 41  1  0
 44 47  1  1
 44 45  1  0
 46 44  1  0
 48  1  1  0
 48 59  1  0
 49 58  1  0
 50 55  1  0
 51 52  1  0
 51 50  1  0
 53 52  1  0
 53 65  1  0
 53 54  1  0
 55 49  1  0
 55 54  1  0
 56 49  2  0
 57 58  1  0
 57 59  1  0
 58 60  1  0
 59 61  1  0
 62 63  2  0
 63 82  1  0
 64 63  1  0
 64 67  1  0
 65 62  1  0
 65 66  1  0
 66 64  2  0
 67 68  1  0
 68 69  2  0
 70 73  1  0
 70 69  1  0
 71 70  2  0
 72 71  1  0
 72 67  2  0
 73 74  1  0
 74 75  1  0
 75 76  2  0
 77 76  1  0
 77 81  1  0
 78 77  2  0
 79 74  2  0
 79 78  1  0
 80 79  1  0
 82 83  1  0
 83 86  1  0
 83 85  1  0
 84 82  2  0
 87 88  1  0
 87 62  1  0
 89 87  1  0
 90 92  1  0
 92 48  1  0
 92 91  1  0
M  ISO  4   6 101   7 101  49 100  58 100
M  END
>  <TORSDO>  (5) 
F 21

>  <SCORE>  (5) 
-13.696

>  <name>  (5) 
4

>  <ligand_id>  (5) 
4

>  <original_smiles>  (5) 
[H]C(N([H])C(=O)N1C([H])([H])C([H])([H])C([H])([H])C([H])(n2nc(-c3c([H])c([H])c(Oc4c([H])c([H])c(F)c([H])c4F)c([H])c3[H])c(C(=O)N([H])[H])c2N([H])[H])C1([H])[H])=[N+]([H])C([H])(C(=NC([H])([H])C([H])([H])C([H])([H])Oc1c([H])c([H])c2c(c1[H])C([H])([H])N(C(=O)C([H])(N([H])C(=O)C([H])(N([H])C([H])([H])[H])C([H])([H])[H])C(C([H])([H])[H])(C([H])([H])[H])C([H])([H])[H])C([H])(C(=O)N([H])C1([H])c3c([H])c([H])c([H])c([H])c3C([H])([H])C([H])([H])C1([H])[H])C2([H])[H])C([H])([H])[H])C([H])(C([H])([H])[H])C([H])([H])[H]

>  <smiles>  (5) 
[H]C(N([H])C(=O)N1C([H])([H])C([H])([H])C([H])([H])C([H])(n2nc(-c3c([H])c([H])c(Oc4c([H])c([H])c(F)c([H])c4F)c([H])c3[H])c(C(=O)N([H])[H])c2N([H])[H])C1([H])[H])=[N+]([H])C([H])(C(=NC([H])([H])C([H])([H])C([H])([H])Oc1c([H])c([H])c2c(c1[H])C([H])([H])N(C(=O)C([H])(N([H])C(=O)C([H])(N([H])C([H])([H])[H])C([H])([H])[H])C(C([H])([H])[H])(C([H])([H])[H])C([H])([H])[H])C([H])(C(=O)N([H])C1([H])c3c([H])c([H])c([H])c([H])c3C([H])([H])C([H])([H])C1([H])[H])C2([H])[H])C([H])([H])[H])C([H])(C([H])([H])[H])C([H])([H])[H]

$$$$
5:0:0
     RDKit          3D

 96104  0  0  1  0  0  0  0  0999 V2000
  -28.6200  -22.1490   18.3190 C   0  0  0  0  0  3  0  0  0  0  0  0
  -28.8710  -23.5320   18.2660 C   0  0  0  0  0  3  0  0  0  0  0  0
  -30.2280  -21.9280   20.1130 C   0  0  0  0  0  3  0  0  0  0  0  0
  -29.3270  -21.3100   19.2080 C   0  0  0  0  0  0  0  0  0  0  0  0
  -29.8060  -24.1430   19.1270 C   0  0  0  0  0  0  0  0  0  0  0  0
  -30.4630  -23.3250   20.0890 C   0  0  0  0  0  0  0  0  0  0  0  0
  -31.4690  -23.8900   21.0810 C   0  0  0  0  0  1  0  0  0  0  0  0
  -31.0100  -25.7510   17.6220 C   0  0  0  0  0  1  0  0  0  0  0  0
  -30.1590  -25.6240   18.8950 C   0  0  0  0  0  3  0  0  0  0  0  0
  -28.9390  -26.5800   18.8290 C   0  0  0  0  0  2  0  0  0  0  0  0
  -28.3530  -26.7570   20.1150 O   0  0  0  0  0  0  0  0  0  0  0  0
  -24.5600  -31.8970   23.2470 C   0  0  0  0  0  0  0  0  0  0  0  0
  -27.1870  -27.4830   20.1230 C   0  0  0  0  0  0  0  0  0  0  0  0
  -23.3390  -30.4920   21.6160 C   0  0  0  0  0  3  0  0  0  0  0  0
  -24.7840  -28.9620   20.1710 C   0  0  0  0  0  0  0  0  0  0  0  0
  -25.8610  -30.8540   21.4010 C   0  0  0  0  0  2  0  0  0  0  0  0
  -25.9410  -29.4870   20.7580 C   0  0  0  0  0  0  0  0  0  0  0  0
  -27.1440  -28.7490   20.7450 C   0  0  0  0  0  3  0  0  0  0  0  0
  -26.0140  -26.9570   19.5440 C   0  0  0  0  0  3  0  0  0  0  0  0
  -24.8130  -27.6920   19.5640 C   0  0  0  0  0  3  0  0  0  0  0  0
  -23.5360  -29.8140   20.2320 C   0  0  0  0  0  2  0  0  0  0  0  0
  -24.6050  -31.0910   22.1480 N   0  0  0  0  0  0  0  0  0  0  0  0
  -23.4790  -32.1920   23.7760 O   0  0  0  0  0  0  0  0  0  0  0  0
  -22.6970  -29.4670   22.5790 C   0  0  0  0  0  0  0  0  0  0  0  0
  -21.3720  -29.2810   22.4580 N   0  0  0  0  0  0  0  0  0  0  0  0
  -23.3870  -28.8420   23.3870 O   0  0  0  0  0  0  0  0  0  0  0  0
  -20.8770  -29.8380   21.7760 H   0  0  0  0  0  0  0  0  0  0  0  0
  -18.0020  -28.0830   22.9610 C   0  0  0  0  0  0  0  0  0  0  0  0
  -20.5600  -28.3410   23.2290 C   0  0  0  0  0  3  0  0  0  0  0  0
  -20.6630  -26.9110   22.6490 C   0  0  0  0  0  2  0  0  0  0  0  0
  -19.5590  -26.5910   21.6360 C   0  0  0  0  0  2  0  0  0  0  0  0
  -18.1790  -26.7340   22.2830 C   0  0  0  0  0  2  0  0  0  0  0  0
  -19.1210  -28.8430   23.3910 C   0  0  0  0  0  0  0  0  0  0  0  0
  -18.9030  -30.1070   23.9820 C   0  0  0  0  0  3  0  0  0  0  0  0
  -17.5980  -30.6080   24.1500 C   0  0  0  0  0  3  0  0  0  0  0  0
  -16.4930  -29.8420   23.7390 C   0  0  0  0  0  3  0  0  0  0  0  0
  -16.6960  -28.5810   23.1500 C   0  0  0  0  0  3  0  0  0  0  0  0
  -25.8560  -32.5120   23.8630 C   0  0  0  0  0  3  0  0  0  0  0  0
  -25.5590  -33.9120   24.1950 N   0  0  0  0  0  0  0  0  0  0  0  0
  -25.8950  -34.9600   23.4320 C   0  0  0  0  0  0  0  0  0  0  0  0
  -26.5620  -34.8520   22.3980 O   0  0  0  0  0  0  0  0  0  0  0  0
  -24.9640  -34.0700   24.9940 H   0  0  0  0  0  0  0  0  0  0  0  0
  -24.1770  -36.7630   23.0740 C   0  0  0  0  0  1  0  0  0  0  0  0
  -25.4140  -36.3500   23.8880 C   0  0  0  0  0  3  0  0  0  0  0  0
  -27.5540  -37.2200   24.7210 C   0  0  0  0  0  1  0  0  0  0  0  0
  -26.4520  -37.3980   23.7790 N   0  0  0  0  0  0  0  0  0  0  0  0
  -26.0490  -38.3190   23.9330 H   0  0  0  0  0  0  0  0  0  0  0  0
  -26.3790  -31.7370   25.1360 C   0  0  1  0  0  0  0  0  0  0  0  0
  -25.2890  -31.5070   26.2070 C   0  0  0  0  0  1  0  0  0  0  0  0
  -26.9510  -30.3570   24.7400 C   0  0  0  0  0  1  0  0  0  0  0  0
  -27.5350  -32.5270   25.7940 C   0  0  0  0  0  1  0  0  0  0  0  0
  -29.2410  -19.2640   17.6750 C   0  0  0  0  0  1  0  0  0  0  0  0
  -29.1020  -19.7810   19.1330 C   0  0  0  0  0  3  0  0  0  0  0  0
  -29.9590  -18.9990   20.0720 N   0  0  0  0  0  4  0  0  0  0  0  0
  -30.9250  -19.2180   19.8960 H   0  0  0  0  0  0  0  0  0  0  0  0
  -29.7330  -19.3030   21.0050 H   0  0  0  0  0  0  0  0  0  0  0  0
  -29.7940  -17.5260   20.0140 C   0  0  0  0  0  2  0  0  0  0  0  0
  -30.3030  -16.7960   21.2770 C   0  0  0  0  0  2  0  0  0  0  0  0
  -30.6570  -14.4240   20.5490 C   0  0  0  0  0  0  0  0  0  0  0  0
  -30.3600  -12.3100   19.3200 C   0  0  0  0  0  2  0  0  0  0  0  0
  -29.4260  -12.5600   18.1180 C   0  0  0  0  0  2  0  0  0  0  0  0
  -27.9430  -12.4350   18.5230 C   0  0  0  0  0  2  0  0  0  0  0  0
  -27.6090  -13.2310   19.8140 C   0  0  0  0  0  3  0  0  0  0  0  0
  -28.6500  -12.9440   20.9200 C   0  0  0  0  0  2  0  0  0  0  0  0
  -29.9880  -13.2560   20.3810 N   0  0  0  0  0  0  0  0  0  0  0  0
  -31.7460  -14.6750   20.0220 O   0  0  0  0  0  0  0  0  0  0  0  0
  -29.9800  -15.3660   21.2240 N   0  0  0  0  0  0  0  0  0  0  0  0
  -29.1000  -15.0780   21.6280 H   0  0  0  0  0  0  0  0  0  0  0  0
  -25.1990  -13.8420   20.4850 C   0  0  0  0  0  0  0  0  0  0  0  0
  -24.1250  -13.0720   20.8480 C   0  0  0  0  0  0  0  0  0  0  0  0
  -24.5870  -11.7200   20.8300 C   0  0  0  0  0  0  0  0  0  0  0  0
  -26.2480  -12.9590   20.2750 N   0  0  0  0  0  0  0  0  0  0  0  0
  -25.8800  -11.6790   20.5350 N   0  0  0  0  0  0  0  0  0  0  0  0
  -23.8580  -10.4590   21.0240 C   0  0  0  0  0  0  0  0  0  0  0  0
  -24.2850   -9.5010   21.9690 C   0  0  0  0  0  3  0  0  0  0  0  0
  -23.5630   -8.3030   22.1490 C   0  0  0  0  0  3  0  0  0  0  0  0
  -22.3970   -8.0530   21.3880 C   0  0  0  0  0  0  0  0  0  0  0  0
  -21.9880   -9.0010   20.4310 C   0  0  0  0  0  3  0  0  0  0  0  0
  -22.7110  -10.1920   20.2500 C   0  0  0  0  0  3  0  0  0  0  0  0
  -21.6460   -6.9080   21.4770 O   0  0  0  0  0  0  0  0  0  0  0  0
  -21.5930   -6.1710   22.6330 C   0  0  0  0  0  0  0  0  0  0  0  0
  -21.1520   -6.7310   23.8540 C   0  0  0  0  0  3  0  0  0  0  0  0
  -21.0490   -5.9190   25.0000 C   0  0  0  0  0  3  0  0  0  0  0  0
  -21.3700   -4.5510   24.9280 C   0  0  0  0  0  0  0  0  0  0  0  0
  -21.8000   -3.9920   23.7120 C   0  0  0  0  0  3  0  0  0  0  0  0
  -21.9080   -4.8000   22.5680 C   0  0  0  0  0  0  0  0  0  0  0  0
  -22.3040   -4.2510   21.3930 F   0  0  0  0  0  0  0  0  0  0  0  0
  -21.2600   -3.7710   26.0280 F   0  0  0  0  0  0  0  0  0  0  0  0
  -22.7250  -13.5510   21.1030 C   0  0  0  0  0  0  0  0  0  0  0  0
  -21.9900  -12.8620   21.9670 N   0  0  0  0  0  0  0  0  0  0  0  0
  -22.2910  -14.5710   20.5680 O   0  0  0  0  0  0  0  0  0  0  0  0
  -22.3530  -12.0370   22.4240 H   0  0  0  0  0  0  0  0  0  0  0  0
  -21.0460  -13.1630   22.1740 H   0  0  0  0  0  0  0  0  0  0  0  0
  -25.3650  -15.2100   20.2960 N   0  0  0  0  0  0  0  0  0  0  0  0
  -24.5940  -15.8620   20.3770 H   0  0  0  0  0  0  0  0  0  0  0  0
  -26.2130  -15.6440   19.9580 H   0  0  0  0  0  0  0  0  0  0  0  0
  1  4  1  0
  2  1  2  0
  2  5  1  0
  4  3  2  0
  5  6  2  0
  6  3  1  0
  6  7  1  0
  9  8  1  0
  9  5  1  0
 10  9  1  0
 10 11  1  0
 11 13  1  0
 12 23  2  0
 13 18  1  0
 14 22  1  0
 14 24  1  0
 15 21  1  0
 15 17  1  0
 16 22  1  0
 17 16  1  0
 18 17  2  0
 19 20  1  0
 19 13  2  0
 20 15  2  0
 21 14  1  0
 22 12  1  0
 24 26  2  0
 25 24  1  0
 27 25  1  0
 28 37  2  0
 28 33  1  0
 29 25  1  0
 29 33  1  0
 30 29  1  0
 31 32  1  0
 31 30  1  0
 32 28  1  0
 33 34  2  0
 34 35  1  0
 36 35  2  0
 37 36  1  0
 38 12  1  0
 38 39  1  0
 38 48  1  0
 39 42  1  0
 40 44  1  0
 40 39  1  0
 41 40  2  0
 44 43  1  0
 46 44  1  0
 46 47  1  0
 46 45  1  0
 48 51  1  1
 48 49  1  0
 50 48  1  0
 53 52  1  0
 53  4  1  0
 53 54  1  0
 54 56  1  0
 55 54  1  0
 57 54  1  0
 57 58  1  0
 59 67  1  0
 60 65  1  0
 61 62  1  0
 61 60  1  0
 63 62  1  0
 63 72  1  0
 63 64  1  0
 65 59  1  0
 65 64  1  0
 66 59  2  0
 67 58  1  0
 67 68  1  0
 69 70  2  0
 70 89  1  0
 71 70  1  0
 71 74  1  0
 72 69  1  0
 72 73  1  0
 73 71  2  0
 74 75  1  0
 75 76  2  0
 77 80  1  0
 77 76  1  0
 78 77  2  0
 79 78  1  0
 79 74  2  0
 80 81  1  0
 81 82  1  0
 82 83  2  0
 84 83  1  0
 84 88  1  0
 85 84  2  0
 86 81  2  0
 86 85  1  0
 87 86  1  0
 89 90  1  0
 90 93  1  0
 90 92  1  0
 91 89  2  0
 94 95  1  0
 94 69  1  0
 96 94  1  0
M  ISO  4  10 101  11 101  59 100  67 100
M  END
>  <TORSDO>  (6) 
F 22

>  <SCORE>  (6) 
-13.024

>  <name>  (6) 
5

>  <ligand_id>  (6) 
5

>  <original_smiles>  (6) 
[H]c1c([H])c([H])c2c(c1[H])C([H])([H])C([H])([H])C([H])([H])C2([H])N([H])C(=O)C1([H])N(C(=O)C([H])(N([H])C(=O)C([H])(N([H])C([H])([H])[H])C([H])([H])[H])C(C([H])([H])[H])(C([H])([H])[H])C([H])([H])[H])C([H])([H])c2c([H])c(OC([H])([H])C([H])(c3c([H])c([H])c(C([H])(C([H])([H])[H])[N+]([H])([H])C([H])([H])C([H])([H])N([H])C(=O)N4C([H])([H])C([H])([H])C([H])([H])C([H])(n5nc(-c6c([H])c([H])c(Oc7c([H])c([H])c(F)c([H])c7F)c([H])c6[H])c(C(=O)N([H])[H])c5N([H])[H])C4([H])[H])c([H])c3C([H])([H])[H])C([H])([H])[H])c([H])c([H])c2C1([H])[H]

>  <smiles>  (6) 
[H]c1c([H])c([H])c2c(c1[H])C([H])([H])C([H])([H])C([H])([H])C2([H])N([H])C(=O)C1([H])N(C(=O)C([H])(N([H])C(=O)C([H])(N([H])C([H])([H])[H])C([H])([H])[H])C(C([H])([H])[H])(C([H])([H])[H])C([H])([H])[H])C([H])([H])c2c([H])c(OC([H])([H])C([H])(c3c([H])c([H])c(C([H])(C([H])([H])[H])[N+]([H])([H])C([H])([H])C([H])([H])N([H])C(=O)N4C([H])([H])C([H])([H])C([H])([H])C([H])(n5nc(-c6c([H])c([H])c(Oc7c([H])c([H])c(F)c([H])c7F)c([H])c6[H])c(C(=O)N([H])[H])c5N([H])[H])C4([H])[H])c([H])c3C([H])([H])[H])C([H])([H])[H])c([H])c([H])c2C1([H])[H]

$$$$
6:0:0
     RDKit          3D

 94103  0  0  1  0  0  0  0  0999 V2000
  -28.5900  -22.4230   17.3050 C   0  0  0  0  0  2  0  0  0  0  0  0
  -28.7290  -23.9260   17.5690 C   0  0  0  0  0  2  0  0  0  0  0  0
  -29.5230  -21.6010   18.2010 C   0  0  0  0  0  2  0  0  0  0  0  0
  -29.4530  -23.3410   19.9550 C   0  0  0  0  0  2  0  0  0  0  0  0
  -28.5750  -24.3110   19.0600 C   0  0  0  0  0  3  0  0  0  0  0  0
  -29.2520  -21.8740   19.6330 N   0  0  2  0  0  4  0  0  0  0  0  0
  -28.2650  -21.7210   19.7600 H   0  0  0  0  0  0  0  0  0  0  0  0
  -29.9050  -20.8560   20.5470 C   0  0  0  0  0  2  0  0  0  0  0  0
  -27.4700  -17.9480   19.9110 C   0  0  0  0  0  3  0  0  0  0  0  0
  -28.0450  -19.2210   20.0010 C   0  0  0  0  0  3  0  0  0  0  0  0
  -28.2210  -16.8180   20.2700 C   0  0  0  0  0  3  0  0  0  0  0  0
  -30.1590  -18.1990   20.7080 C   0  0  0  0  0  3  0  0  0  0  0  0
  -29.3890  -19.3860   20.3970 C   0  0  0  0  0  0  0  0  0  0  0  0
  -29.5700  -16.8850   20.6490 C   0  0  0  0  0  0  0  0  0  0  0  0
  -30.7050  -14.6080   20.4410 C   0  0  0  0  0  0  0  0  0  0  0  0
  -30.4270  -12.3680   19.3830 C   0  0  0  0  0  2  0  0  0  0  0  0
  -29.4980  -12.4900   18.1570 C   0  0  0  0  0  2  0  0  0  0  0  0
  -28.0290  -12.3040   18.5770 C   0  0  0  0  0  2  0  0  0  0  0  0
  -27.6590  -13.1980   19.7840 C   0  0  0  0  0  3  0  0  0  0  0  0
  -28.7050  -13.1110   20.9260 C   0  0  0  0  0  2  0  0  0  0  0  0
  -30.0410  -13.4050   20.3700 N   0  0  0  0  0  0  0  0  0  0  0  0
  -31.7970  -14.7660   19.8910 O   0  0  0  0  0  0  0  0  0  0  0  0
  -30.1230  -15.6260   21.1440 N   0  0  0  0  0  0  0  0  0  0  0  0
  -29.4900  -15.2090   21.8080 H   0  0  0  0  0  0  0  0  0  0  0  0
  -25.2510  -13.8230   20.4690 C   0  0  0  0  0  0  0  0  0  0  0  0
  -24.1850  -13.0610   20.8520 C   0  0  0  0  0  0  0  0  0  0  0  0
  -24.6440  -11.7120   20.8360 C   0  0  0  0  0  0  0  0  0  0  0  0
  -26.3020  -12.9410   20.2590 N   0  0  0  0  0  0  0  0  0  0  0  0
  -25.9390  -11.6650   20.5420 N   0  0  0  0  0  0  0  0  0  0  0  0
  -23.9060  -10.4590   21.0240 C   0  0  0  0  0  0  0  0  0  0  0  0
  -24.3200   -9.4990   21.9710 C   0  0  0  0  0  3  0  0  0  0  0  0
  -23.5800   -8.3120   22.1530 C   0  0  0  0  0  3  0  0  0  0  0  0
  -22.4130   -8.0790   21.3860 C   0  0  0  0  0  0  0  0  0  0  0  0
  -22.0180   -9.0290   20.4280 C   0  0  0  0  0  3  0  0  0  0  0  0
  -22.7570  -10.2090   20.2450 C   0  0  0  0  0  3  0  0  0  0  0  0
  -21.6500   -6.9400   21.4740 O   0  0  0  0  0  0  0  0  0  0  0  0
  -21.5800   -6.2070   22.6310 C   0  0  0  0  0  0  0  0  0  0  0  0
  -21.1310   -6.7750   23.8440 C   0  0  0  0  0  3  0  0  0  0  0  0
  -21.0030   -5.9710   24.9930 C   0  0  0  0  0  3  0  0  0  0  0  0
  -21.3210   -4.6010   24.9340 C   0  0  0  0  0  0  0  0  0  0  0  0
  -21.7650   -4.0330   23.7260 C   0  0  0  0  0  3  0  0  0  0  0  0
  -21.8910   -4.8330   22.5780 C   0  0  0  0  0  0  0  0  0  0  0  0
  -22.2980   -4.2780   21.4110 F   0  0  0  0  0  0  0  0  0  0  0  0
  -21.1950   -3.8250   26.0340 F   0  0  0  0  0  0  0  0  0  0  0  0
  -22.7910  -13.5520   21.1120 C   0  0  0  0  0  0  0  0  0  0  0  0
  -22.0620  -12.8700   21.9870 N   0  0  0  0  0  0  0  0  0  0  0  0
  -22.3620  -14.5760   20.5840 O   0  0  0  0  0  0  0  0  0  0  0  0
  -22.4260  -12.0350   22.4240 H   0  0  0  0  0  0  0  0  0  0  0  0
  -21.1290  -13.1790   22.2200 H   0  0  0  0  0  0  0  0  0  0  0  0
  -25.3690  -15.1880   20.2500 N   0  0  0  0  0  0  0  0  0  0  0  0
  -24.5480  -15.7790   20.3200 H   0  0  0  0  0  0  0  0  0  0  0  0
  -26.1120  -15.6160   19.7170 H   0  0  0  0  0  0  0  0  0  0  0  0
  -28.8780  -25.8550   19.1390 C   0  0  0  0  0  2  0  0  0  0  0  0
  -28.4200  -26.6430   20.2530 O   0  0  0  0  0  0  0  0  0  0  0  0
  -24.5820  -31.8690   23.2290 C   0  0  0  0  0  0  0  0  0  0  0  0
  -27.2550  -27.3930   20.1640 C   0  0  0  0  0  0  0  0  0  0  0  0
  -23.3860  -30.4520   21.5950 C   0  0  0  0  0  3  0  0  0  0  0  0
  -24.8500  -28.9100   20.1690 C   0  0  0  0  0  0  0  0  0  0  0  0
  -25.9120  -30.7990   21.4120 C   0  0  0  0  0  2  0  0  0  0  0  0
  -26.0030  -29.4240   20.7760 C   0  0  0  0  0  0  0  0  0  0  0  0
  -27.1970  -28.6660   20.7860 C   0  0  0  0  0  3  0  0  0  0  0  0
  -26.0890  -26.9050   19.5310 C   0  0  0  0  0  3  0  0  0  0  0  0
  -24.8910  -27.6500   19.5430 C   0  0  0  0  0  3  0  0  0  0  0  0
  -23.6020  -29.7670   20.2180 C   0  0  0  0  0  2  0  0  0  0  0  0
  -24.6470  -31.0520   22.1390 N   0  0  0  0  0  0  0  0  0  0  0  0
  -23.4920  -32.1750   23.7310 O   0  0  0  0  0  0  0  0  0  0  0  0
  -22.7270  -29.4360   22.5570 C   0  0  0  0  0  0  0  0  0  0  0  0
  -21.4000  -29.2640   22.4310 N   0  0  0  0  0  0  0  0  0  0  0  0
  -23.4050  -28.8060   23.3720 O   0  0  0  0  0  0  0  0  0  0  0  0
  -20.9110  -29.8220   21.7450 H   0  0  0  0  0  0  0  0  0  0  0  0
  -18.0180  -28.1000   22.9400 C   0  0  0  0  0  0  0  0  0  0  0  0
  -20.5780  -28.3290   23.2010 C   0  0  0  0  0  3  0  0  0  0  0  0
  -20.6640  -26.9020   22.6100 C   0  0  0  0  0  2  0  0  0  0  0  0
  -19.5540  -26.6010   21.5990 C   0  0  0  0  0  2  0  0  0  0  0  0
  -18.1770  -26.7540   22.2510 C   0  0  0  0  0  2  0  0  0  0  0  0
  -19.1460  -28.8460   23.3710 C   0  0  0  0  0  0  0  0  0  0  0  0
  -18.9440  -30.1070   23.9730 C   0  0  0  0  0  3  0  0  0  0  0  0
  -17.6450  -30.6220   24.1470 C   0  0  0  0  0  3  0  0  0  0  0  0
  -16.5320  -29.8720   23.7310 C   0  0  0  0  0  3  0  0  0  0  0  0
  -16.7190  -28.6120   23.1360 C   0  0  0  0  0  3  0  0  0  0  0  0
  -25.8650  -32.4890   23.8680 C   0  0  0  0  0  3  0  0  0  0  0  0
  -26.3770  -31.7100   25.1410 C   0  0  1  0  0  0  0  0  0  0  0  0
  -25.2760  -31.4640   26.2000 C   0  0  0  0  0  1  0  0  0  0  0  0
  -26.9640  -30.3380   24.7400 C   0  0  0  0  0  1  0  0  0  0  0  0
  -27.5280  -32.5000   25.8120 C   0  0  0  0  0  1  0  0  0  0  0  0
  -25.5590  -33.8870   24.2010 N   0  0  0  0  0  0  0  0  0  0  0  0
  -25.8910  -34.9380   23.4400 C   0  0  0  0  0  0  0  0  0  0  0  0
  -26.5580  -34.8350   22.4060 O   0  0  0  0  0  0  0  0  0  0  0  0
  -24.9630  -34.0430   25.0010 H   0  0  0  0  0  0  0  0  0  0  0  0
  -24.1570  -36.7270   23.0920 C   0  0  0  0  0  1  0  0  0  0  0  0
  -25.4040  -36.3260   23.8970 C   0  0  0  0  0  3  0  0  0  0  0  0
  -27.5400  -37.2150   24.7200 C   0  0  0  0  0  1  0  0  0  0  0  0
  -26.4350  -37.3820   23.7780 N   0  0  0  0  0  0  0  0  0  0  0  0
  -26.0290  -38.3010   23.9280 H   0  0  0  0  0  0  0  0  0  0  0  0
  1  2  1  0
  1  3  1  0
  2  5  1  0
  3  6  1  0
  5 53  1  0
  5  4  1  0
  6  7  1  6
  6  4  1  0
  6  8  1  0
  9 10  2  0
  9 11  1  0
 10 13  1  0
 11 14  2  0
 13  8  1  0
 13 12  2  0
 14 12  1  0
 14 23  1  0
 15 23  1  0
 16 21  1  0
 17 18  1  0
 17 16  1  0
 19 18  1  0
 19 28  1  0
 19 20  1  0
 21 15  1  0
 21 20  1  0
 22 15  2  0
 23 24  1  0
 25 26  2  0
 26 45  1  0
 27 26  1  0
 27 30  1  0
 28 25  1  0
 28 29  1  0
 29 27  2  0
 30 31  1  0
 31 32  2  0
 33 36  1  0
 33 32  1  0
 34 33  2  0
 35 34  1  0
 35 30  2  0
 36 37  1  0
 37 38  1  0
 38 39  2  0
 40 39  1  0
 40 44  1  0
 41 40  2  0
 42 37  2  0
 42 41  1  0
 43 42  1  0
 45 46  1  0
 46 49  1  0
 46 48  1  0
 47 45  2  0
 50 51  1  0
 50 25  1  0
 52 50  1  0
 53 54  1  0
 55 66  2  0
 56 54  1  0
 56 61  1  0
 57 65  1  0
 57 67  1  0
 58 64  1  0
 58 60  1  0
 59 65  1  0
 60 61  2  0
 60 59  1  0
 62 63  1  0
 62 56  2  0
 63 58  2  0
 64 57  1  0
 65 55  1  0
 67 69  2  0
 68 67  1  0
 70 68  1  0
 71 80  2  0
 71 76  1  0
 72 68  1  0
 72 76  1  0
 73 72  1  0
 74 75  1  0
 74 73  1  0
 75 71  1  0
 76 77  2  0
 77 78  1  0
 79 78  2  0
 80 79  1  0
 81 55  1  0
 81 86  1  0
 81 82  1  0
 82 85  1  1
 82 83  1  0
 84 82  1  0
 86 89  1  0
 87 91  1  0
 87 86  1  0
 88 87  2  0
 91 90  1  0
 93 91  1  0
 93 94  1  0
 93 92  1  0
M  ISO  4  15 100  23 100  53 101  54 101
M  END
>  <TORSDO>  (7) 
F 19

>  <SCORE>  (7) 
-14.504

>  <name>  (7) 
6

>  <ligand_id>  (7) 
6

>  <original_smiles>  (7) 
[H]c1c([H])c([H])c2c(c1[H])C([H])([H])C([H])([H])C([H])([H])C2([H])N([H])C(=O)C1([H])N(C(=O)C([H])(N([H])C(=O)C([H])(N([H])C([H])([H])[H])C([H])([H])[H])C(C([H])([H])[H])(C([H])([H])[H])C([H])([H])[H])C([H])([H])c2c([H])c(OC([H])([H])C3([H])C([H])([H])C([H])([H])C([H])([H])[N+]([H])(C([H])([H])c4c([H])c([H])c([H])c(N([H])C(=O)N5C([H])([H])C([H])([H])C([H])([H])C([H])(n6nc(-c7c([H])c([H])c(Oc8c([H])c([H])c(F)c([H])c8F)c([H])c7[H])c(C(=O)N([H])[H])c6N([H])[H])C5([H])[H])c4[H])C3([H])[H])c([H])c([H])c2C1([H])[H]

>  <smiles>  (7) 
[H]c1c([H])c([H])c2c(c1[H])C([H])([H])C([H])([H])C([H])([H])C2([H])N([H])C(=O)C1([H])N(C(=O)C([H])(N([H])C(=O)C([H])(N([H])C([H])([H])[H])C([H])([H])[H])C(C([H])([H])[H])(C([H])([H])[H])C([H])([H])[H])C([H])([H])c2c([H])c(OC([H])([H])C3([H])C([H])([H])C([H])([H])C([H])([H])[N+]([H])(C([H])([H])c4c([H])c([H])c([H])c(N([H])C(=O)N5C([H])([H])C([H])([H])C([H])([H])C([H])(n6nc(-c7c([H])c([H])c(Oc8c([H])c([H])c(F)c([H])c8F)c([H])c7[H])c(C(=O)N([H])[H])c6N([H])[H])C5([H])[H])c4[H])C3([H])[H])c([H])c([H])c2C1([H])[H]

$$$$
7:0:0
     RDKit          3D

 92100  0  0  1  0  0  0  0  0999 V2000
  -28.4530  -23.8920   20.0890 C   0  0  0  0  0  0  0  0  0  0  0  0
  -29.6600  -25.3800   21.7540 C   0  0  0  0  0  2  0  0  0  0  0  0
  -30.0610  -24.0820   22.4890 C   0  0  0  0  0  2  0  0  0  0  0  0
  -28.3850  -25.2620   20.8910 C   0  0  0  0  0  3  0  0  0  0  0  0
  -28.8950  -22.5750   20.9020 C   0  0  0  0  0  3  0  0  0  0  0  0
  -30.1750  -22.9290   21.5610 N   0  0  0  0  0  4  0  0  0  0  0  0
  -28.1800  -23.8740   18.8850 O   0  0  0  0  0  0  0  0  0  0  0  0
  -30.4940  -22.1380   22.0950 H   0  0  0  0  0  0  0  0  0  0  0  0
  -30.8730  -23.1230   20.8610 H   0  0  0  0  0  0  0  0  0  0  0  0
  -28.3390  -26.5130   20.1030 O   0  0  0  0  0  0  0  0  0  0  0  0
  -24.5870  -31.8730   23.2160 C   0  0  0  0  0  0  0  0  0  0  0  0
  -27.2040  -27.3240   20.1700 C   0  0  0  0  0  0  0  0  0  0  0  0
  -23.3830  -30.4680   21.5820 C   0  0  0  0  0  3  0  0  0  0  0  0
  -24.8350  -28.9130   20.1630 C   0  0  0  0  0  0  0  0  0  0  0  0
  -25.9220  -30.7890   21.4000 C   0  0  0  0  0  2  0  0  0  0  0  0
  -26.0020  -29.4110   20.7570 C   0  0  0  0  0  0  0  0  0  0  0  0
  -27.1930  -28.6290   20.7470 C   0  0  0  0  0  3  0  0  0  0  0  0
  -26.0170  -26.8630   19.5680 C   0  0  0  0  0  3  0  0  0  0  0  0
  -24.8430  -27.6430   19.5600 C   0  0  0  0  0  3  0  0  0  0  0  0
  -23.5990  -29.7890   20.2040 C   0  0  0  0  0  2  0  0  0  0  0  0
  -24.6500  -31.0580   22.1240 N   0  0  0  0  0  0  0  0  0  0  0  0
  -23.4990  -32.1760   23.7240 O   0  0  0  0  0  0  0  0  0  0  0  0
  -22.7210  -29.4520   22.5430 C   0  0  0  0  0  0  0  0  0  0  0  0
  -21.3940  -29.2800   22.4230 N   0  0  0  0  0  0  0  0  0  0  0  0
  -23.4030  -28.8190   23.3550 O   0  0  0  0  0  0  0  0  0  0  0  0
  -20.9050  -29.8450   21.7420 H   0  0  0  0  0  0  0  0  0  0  0  0
  -18.0130  -28.1020   22.9370 C   0  0  0  0  0  0  0  0  0  0  0  0
  -20.5750  -28.3420   23.1920 C   0  0  0  0  0  3  0  0  0  0  0  0
  -20.6620  -26.9150   22.6040 C   0  0  0  0  0  2  0  0  0  0  0  0
  -19.5500  -26.6090   21.5950 C   0  0  0  0  0  2  0  0  0  0  0  0
  -18.1740  -26.7580   22.2490 C   0  0  0  0  0  2  0  0  0  0  0  0
  -19.1400  -28.8530   23.3660 C   0  0  0  0  0  0  0  0  0  0  0  0
  -18.9350  -30.1110   23.9710 C   0  0  0  0  0  3  0  0  0  0  0  0
  -17.6350  -30.6210   24.1500 C   0  0  0  0  0  3  0  0  0  0  0  0
  -16.5220  -29.8690   23.7360 C   0  0  0  0  0  3  0  0  0  0  0  0
  -16.7110  -28.6100   23.1360 C   0  0  0  0  0  3  0  0  0  0  0  0
  -25.8710  -32.4930   23.8520 C   0  0  0  0  0  3  0  0  0  0  0  0
  -26.3790  -31.7200   25.1320 C   0  0  1  0  0  0  0  0  0  0  0  0
  -25.2790  -31.4880   26.1930 C   0  0  0  0  0  1  0  0  0  0  0  0
  -26.9580  -30.3390   24.7460 C   0  0  0  0  0  1  0  0  0  0  0  0
  -27.5290  -32.5110   25.8000 C   0  0  0  0  0  1  0  0  0  0  0  0
  -25.5670  -33.8920   24.1830 N   0  0  0  0  0  0  0  0  0  0  0  0
  -25.9050  -34.9440   23.4250 C   0  0  0  0  0  0  0  0  0  0  0  0
  -26.5750  -34.8380   22.3950 O   0  0  0  0  0  0  0  0  0  0  0  0
  -24.9690  -34.0480   24.9810 H   0  0  0  0  0  0  0  0  0  0  0  0
  -24.1820  -36.7420   23.0700 C   0  0  0  0  0  1  0  0  0  0  0  0
  -25.4200  -36.3340   23.8830 C   0  0  0  0  0  3  0  0  0  0  0  0
  -27.5560  -37.2100   24.7190 C   0  0  0  0  0  1  0  0  0  0  0  0
  -26.4580  -37.3830   23.7730 N   0  0  0  0  0  0  0  0  0  0  0  0
  -26.0530  -38.3040   23.9200 H   0  0  0  0  0  0  0  0  0  0  0  0
  -28.9870  -21.1680   20.1180 C   0  0  0  0  0  2  0  0  0  0  0  0
  -29.6250  -19.8880   20.8530 C   0  0  0  0  0  2  0  0  0  0  0  0
  -29.3210  -18.3960   20.3440 C   0  0  0  0  0  3  0  0  0  0  0  0
  -30.2620  -17.2140   20.8820 C   0  0  0  0  0  3  0  0  0  0  0  0
  -30.6070  -14.6730   20.4070 C   0  0  0  0  0  0  0  0  0  0  0  0
  -30.3960  -12.4290   19.3490 C   0  0  0  0  0  2  0  0  0  0  0  0
  -29.4540  -12.5290   18.1310 C   0  0  0  0  0  2  0  0  0  0  0  0
  -27.9830  -12.3620   18.5640 C   0  0  0  0  0  2  0  0  0  0  0  0
  -27.6160  -13.2400   19.7900 C   0  0  0  0  0  3  0  0  0  0  0  0
  -28.6730  -13.1140   20.9080 C   0  0  0  0  0  2  0  0  0  0  0  0
  -29.9740  -13.4590   20.3200 N   0  0  0  0  0  0  0  0  0  0  0  0
  -31.7860  -14.7980   20.0640 O   0  0  0  0  0  0  0  0  0  0  0  0
  -29.8350  -15.7730   20.7010 N   0  0  0  0  0  0  0  0  0  0  0  0
  -28.8670  -15.5690   20.8990 H   0  0  0  0  0  0  0  0  0  0  0  0
  -25.2260  -13.8370   20.5120 C   0  0  0  0  0  0  0  0  0  0  0  0
  -24.1590  -13.0650   20.8840 C   0  0  0  0  0  0  0  0  0  0  0  0
  -24.6220  -11.7140   20.8580 C   0  0  0  0  0  0  0  0  0  0  0  0
  -26.2690  -12.9570   20.2780 N   0  0  0  0  0  0  0  0  0  0  0  0
  -25.9120  -11.6750   20.5460 N   0  0  0  0  0  0  0  0  0  0  0  0
  -23.8980  -10.4510   21.0510 C   0  0  0  0  0  0  0  0  0  0  0  0
  -24.3370   -9.4820   21.9800 C   0  0  0  0  0  3  0  0  0  0  0  0
  -23.6130   -8.2830   22.1600 C   0  0  0  0  0  3  0  0  0  0  0  0
  -22.4340   -8.0480   21.4130 C   0  0  0  0  0  0  0  0  0  0  0  0
  -22.0150   -9.0050   20.4720 C   0  0  0  0  0  3  0  0  0  0  0  0
  -22.7410  -10.1940   20.2890 C   0  0  0  0  0  3  0  0  0  0  0  0
  -21.6810   -6.9020   21.5010 O   0  0  0  0  0  0  0  0  0  0  0  0
  -21.6470   -6.1520   22.6490 C   0  0  0  0  0  0  0  0  0  0  0  0
  -21.2320   -6.6970   23.8850 C   0  0  0  0  0  3  0  0  0  0  0  0
  -21.1440   -5.8730   25.0240 C   0  0  0  0  0  3  0  0  0  0  0  0
  -21.4620   -4.5040   24.9300 C   0  0  0  0  0  0  0  0  0  0  0  0
  -21.8700   -3.9590   23.7000 C   0  0  0  0  0  3  0  0  0  0  0  0
  -21.9590   -4.7800   22.5630 C   0  0  0  0  0  0  0  0  0  0  0  0
  -22.3320   -4.2450   21.3750 F   0  0  0  0  0  0  0  0  0  0  0  0
  -21.3700   -3.7110   26.0220 F   0  0  0  0  0  0  0  0  0  0  0  0
  -22.7610  -13.5420   21.1540 C   0  0  0  0  0  0  0  0  0  0  0  0
  -22.0310  -12.8470   22.0190 N   0  0  0  0  0  0  0  0  0  0  0  0
  -22.3230  -14.5650   20.6310 O   0  0  0  0  0  0  0  0  0  0  0  0
  -22.3980  -12.0200   22.4680 H   0  0  0  0  0  0  0  0  0  0  0  0
  -21.0920  -13.1480   22.2390 H   0  0  0  0  0  0  0  0  0  0  0  0
  -25.3870  -15.2090   20.3300 N   0  0  0  0  0  0  0  0  0  0  0  0
  -24.6160  -15.8580   20.4330 H   0  0  0  0  0  0  0  0  0  0  0  0
  -26.2260  -15.6460   19.9720 H   0  0  0  0  0  0  0  0  0  0  0  0
  1  4  1  0
  1  5  1  0
  2  3  1  0
  4 10  1  0
  4  2  1  0
  5 51  1  0
  5  6  1  0
  6  8  1  0
  6  3  1  0
  7  1  2  0
  9  6  1  0
 10 12  1  0
 11 22  2  0
 12 17  1  0
 13 21  1  0
 13 23  1  0
 14 20  1  0
 14 16  1  0
 15 21  1  0
 16 15  1  0
 17 16  2  0
 18 12  2  0
 19 18  1  0
 19 14  2  0
 20 13  1  0
 21 11  1  0
 23 25  2  0
 24 23  1  0
 26 24  1  0
 27 36  2  0
 27 32  1  0
 28 24  1  0
 28 32  1  0
 29 28  1  0
 30 31  1  0
 30 29  1  0
 31 27  1  0
 32 33  2  0
 33 34  1  0
 35 34  2  0
 36 35  1  0
 37 11  1  0
 37 42  1  0
 37 38  1  0
 38 41  1  1
 38 39  1  0
 40 38  1  0
 42 45  1  0
 43 47  1  0
 43 42  1  0
 44 43  2  0
 47 46  1  0
 49 47  1  0
 49 50  1  0
 49 48  1  0
 51 52  1  0
 53 52  1  0
 53 54  2  0
 55 63  1  0
 56 61  1  0
 57 58  1  0
 57 56  1  0
 59 58  1  0
 59 68  1  0
 59 60  1  0
 61 55  1  0
 61 60  1  0
 62 55  2  0
 63 54  1  0
 63 64  1  0
 65 66  2  0
 66 85  1  0
 67 66  1  0
 67 70  1  0
 68 65  1  0
 68 69  1  0
 69 67  2  0
 70 71  1  0
 71 72  2  0
 73 76  1  0
 73 72  1  0
 74 73  2  0
 75 74  1  0
 75 70  2  0
 76 77  1  0
 77 78  1  0
 78 79  2  0
 80 79  1  0
 80 84  1  0
 81 80  2  0
 82 77  2  0
 82 81  1  0
 83 82  1  0
 85 86  1  0
 86 89  1  0
 86 88  1  0
 87 85  2  0
 90 91  1  0
 90 65  1  0
 92 90  1  0
M  ISO  4   4 101  10 101  55 100  63 100
M  END
>  <TORSDO>  (8) 
F 20

>  <SCORE>  (8) 
-13.798

>  <name>  (8) 
7

>  <ligand_id>  (8) 
7

>  <original_smiles>  (8) 
[H]c1c([H])c([H])c2c(c1[H])C([H])([H])C([H])([H])C([H])([H])C2([H])N([H])C(=O)C1([H])N(C(=O)C([H])(N([H])C(=O)C([H])(N([H])C([H])([H])[H])C([H])([H])[H])C(C([H])([H])[H])(C([H])([H])[H])C([H])([H])[H])C([H])([H])c2c([H])c(OC3([H])C(=O)C([H])(C([H])([H])C([H])([H])C([H])([H])C([H])([H])N([H])C(=O)N4C([H])([H])C([H])([H])C([H])([H])C([H])(n5nc(-c6c([H])c([H])c(Oc7c([H])c([H])c(F)c([H])c7F)c([H])c6[H])c(C(=O)N([H])[H])c5N([H])[H])C4([H])[H])[N+]([H])([H])C([H])([H])C3([H])[H])c([H])c([H])c2C1([H])[H]

>  <smiles>  (8) 
[H]c1c([H])c([H])c2c(c1[H])C([H])([H])C([H])([H])C([H])([H])C2([H])N([H])C(=O)C1([H])N(C(=O)C([H])(N([H])C(=O)C([H])(N([H])C([H])([H])[H])C([H])([H])[H])C(C([H])([H])[H])(C([H])([H])[H])C([H])([H])[H])C([H])([H])c2c([H])c(OC3([H])C(=O)C([H])(C([H])([H])C([H])([H])C([H])([H])C([H])([H])N([H])C(=O)N4C([H])([H])C([H])([H])C([H])([H])C([H])(n5nc(-c6c([H])c([H])c(Oc7c([H])c([H])c(F)c([H])c7F)c([H])c6[H])c(C(=O)N([H])[H])c5N([H])[H])C4([H])[H])[N+]([H])([H])C([H])([H])C3([H])[H])c([H])c([H])c2C1([H])[H]

$$$$
8:0:0
     RDKit          3D

 96105  0  0  1  0  0  0  0  0999 V2000
  -31.7560  -20.0990   22.2220 C   0  0  0  0  0  2  0  0  0  0  0  0
  -30.3070  -19.9820   20.1720 C   0  0  0  0  0  2  0  0  0  0  0  0
  -31.2730  -21.5380   22.4960 C   0  0  0  0  0  2  0  0  0  0  0  0
  -29.8420  -21.4370   20.4120 C   0  0  0  0  0  2  0  0  0  0  0  0
  -30.2550  -23.6780   21.5680 C   0  0  0  0  0  2  0  0  0  0  0  0
  -32.0670  -22.7300   20.3550 C   0  0  0  0  0  2  0  0  0  0  0  0
  -30.6760  -19.2760   21.4950 C   0  0  0  0  0  3  0  0  0  0  0  0
  -30.5080  -24.5660   20.3390 C   0  0  0  0  0  3  0  0  0  0  0  0
  -30.8570  -22.3020   21.2140 C   0  0  1  0  0  0  0  0  0  0  0  0
  -31.6990  -23.9880   19.6800 N   0  0  0  0  0  4  0  0  0  0  0  0
  -31.4870  -23.8070   18.7120 H   0  0  0  0  0  0  0  0  0  0  0  0
  -32.4790  -24.6230   19.7130 H   0  0  0  0  0  0  0  0  0  0  0  0
  -31.1050  -17.8640   21.3070 N   0  0  0  0  0  4  0  0  0  0  0  0
  -31.4530  -17.5500   22.1990 H   0  0  0  0  0  0  0  0  0  0  0  0
  -31.8730  -17.8060   20.6550 H   0  0  0  0  0  0  0  0  0  0  0  0
  -30.0310  -16.9220   20.8990 C   0  0  0  0  0  2  0  0  0  0  0  0
  -30.1910  -15.5000   21.4940 C   0  0  0  0  0  2  0  0  0  0  0  0
  -30.7020  -14.4410   20.4920 C   0  0  0  0  0  0  0  0  0  0  0  0
  -30.3740  -12.3660   19.1840 C   0  0  0  0  0  2  0  0  0  0  0  0
  -29.4120  -12.6190   18.0030 C   0  0  0  0  0  2  0  0  0  0  0  0
  -27.9400  -12.4820   18.4400 C   0  0  0  0  0  2  0  0  0  0  0  0
  -27.6290  -13.2700   19.7410 C   0  0  0  0  0  3  0  0  0  0  0  0
  -28.6870  -12.9400   20.8180 C   0  0  0  0  0  2  0  0  0  0  0  0
  -30.0110  -13.2880   20.2710 N   0  0  0  0  0  0  0  0  0  0  0  0
  -31.7480  -14.7010   19.8900 O   0  0  0  0  0  0  0  0  0  0  0  0
  -25.2240  -13.8920   20.4260 C   0  0  0  0  0  0  0  0  0  0  0  0
  -24.1530  -13.1260   20.8010 C   0  0  0  0  0  0  0  0  0  0  0  0
  -24.6120  -11.7730   20.7840 C   0  0  0  0  0  0  0  0  0  0  0  0
  -26.2710  -13.0070   20.2120 N   0  0  0  0  0  0  0  0  0  0  0  0
  -25.9030  -11.7290   20.4780 N   0  0  0  0  0  0  0  0  0  0  0  0
  -23.8840  -10.5150   20.9850 C   0  0  0  0  0  0  0  0  0  0  0  0
  -24.3180   -9.5540   21.9260 C   0  0  0  0  0  3  0  0  0  0  0  0
  -23.5920   -8.3590   22.1140 C   0  0  0  0  0  3  0  0  0  0  0  0
  -22.4170   -8.1160   21.3620 C   0  0  0  0  0  0  0  0  0  0  0  0
  -22.0030   -9.0640   20.4110 C   0  0  0  0  0  3  0  0  0  0  0  0
  -22.7300  -10.2510   20.2210 C   0  0  0  0  0  3  0  0  0  0  0  0
  -21.6630   -6.9710   21.4600 O   0  0  0  0  0  0  0  0  0  0  0  0
  -21.6160   -6.2360   22.6180 C   0  0  0  0  0  0  0  0  0  0  0  0
  -21.2030   -6.8030   23.8430 C   0  0  0  0  0  3  0  0  0  0  0  0
  -21.1030   -5.9950   24.9930 C   0  0  0  0  0  3  0  0  0  0  0  0
  -21.4060   -4.6220   24.9190 C   0  0  0  0  0  0  0  0  0  0  0  0
  -21.8120   -4.0550   23.6990 C   0  0  0  0  0  3  0  0  0  0  0  0
  -21.9150   -4.8610   22.5500 C   0  0  0  0  0  0  0  0  0  0  0  0
  -22.2870   -4.3050   21.3720 F   0  0  0  0  0  0  0  0  0  0  0  0
  -21.3020   -3.8440   26.0220 F   0  0  0  0  0  0  0  0  0  0  0  0
  -22.7570  -13.6070   21.0670 C   0  0  0  0  0  0  0  0  0  0  0  0
  -22.0270  -12.9200   21.9400 N   0  0  0  0  0  0  0  0  0  0  0  0
  -22.3180  -14.6280   20.5370 O   0  0  0  0  0  0  0  0  0  0  0  0
  -22.3930  -12.0950   22.3900 H   0  0  0  0  0  0  0  0  0  0  0  0
  -21.0910  -13.2270   22.1620 H   0  0  0  0  0  0  0  0  0  0  0  0
  -25.3900  -15.2610   20.2330 N   0  0  0  0  0  0  0  0  0  0  0  0
  -24.6190  -15.9140   20.3240 H   0  0  0  0  0  0  0  0  0  0  0  0
  -26.2380  -15.6960   19.8920 H   0  0  0  0  0  0  0  0  0  0  0  0
  -30.6970  -26.0710   20.6470 C   0  0  0  0  0  2  0  0  0  0  0  0
  -29.4340  -26.8190   21.1170 C   0  0  0  0  0  2  0  0  0  0  0  0
  -28.4370  -26.7200   20.1050 O   0  0  0  0  0  0  0  0  0  0  0  0
  -24.6070  -31.9110   23.2570 C   0  0  0  0  0  0  0  0  0  0  0  0
  -27.2930  -27.4840   20.2050 C   0  0  0  0  0  0  0  0  0  0  0  0
  -23.4070  -30.4890   21.6250 C   0  0  0  0  0  3  0  0  0  0  0  0
  -24.8720  -28.9490   20.2140 C   0  0  0  0  0  0  0  0  0  0  0  0
  -25.9270  -30.8630   21.4280 C   0  0  0  0  0  2  0  0  0  0  0  0
  -26.0210  -29.4870   20.8070 C   0  0  0  0  0  0  0  0  0  0  0  0
  -27.2310  -28.7610   20.8130 C   0  0  0  0  0  3  0  0  0  0  0  0
  -26.1290  -26.9580   19.6090 C   0  0  0  0  0  3  0  0  0  0  0  0
  -24.9180  -27.6760   19.6170 C   0  0  0  0  0  3  0  0  0  0  0  0
  -23.6210  -29.7980   20.2520 C   0  0  0  0  0  2  0  0  0  0  0  0
  -24.6650  -31.0990   22.1650 N   0  0  0  0  0  0  0  0  0  0  0  0
  -23.5200  -32.2040   23.7740 O   0  0  0  0  0  0  0  0  0  0  0  0
  -22.7610  -29.4700   22.5920 C   0  0  0  0  0  0  0  0  0  0  0  0
  -21.4390  -29.2780   22.4590 N   0  0  0  0  0  0  0  0  0  0  0  0
  -23.4460  -28.8550   23.4130 O   0  0  0  0  0  0  0  0  0  0  0  0
  -20.9480  -29.8260   21.7660 H   0  0  0  0  0  0  0  0  0  0  0  0
  -18.0690  -28.0670   22.9430 C   0  0  0  0  0  0  0  0  0  0  0  0
  -20.6240  -28.3400   23.2300 C   0  0  0  0  0  3  0  0  0  0  0  0
  -20.7390  -26.9060   22.6620 C   0  0  0  0  0  2  0  0  0  0  0  0
  -19.6450  -26.5720   21.6430 C   0  0  0  0  0  2  0  0  0  0  0  0
  -18.2570  -26.7140   22.2780 C   0  0  0  0  0  2  0  0  0  0  0  0
  -19.1810  -28.8370   23.3760 C   0  0  0  0  0  0  0  0  0  0  0  0
  -18.9540  -30.1040   23.9570 C   0  0  0  0  0  3  0  0  0  0  0  0
  -17.6460  -30.6000   24.1090 C   0  0  0  0  0  3  0  0  0  0  0  0
  -16.5480  -29.8270   23.6930 C   0  0  0  0  0  3  0  0  0  0  0  0
  -16.7610  -28.5620   23.1170 C   0  0  0  0  0  3  0  0  0  0  0  0
  -25.8930  -32.5380   23.8830 C   0  0  0  0  0  3  0  0  0  0  0  0
  -25.5880  -33.9360   24.2090 N   0  0  0  0  0  0  0  0  0  0  0  0
  -25.9200  -34.9830   23.4420 C   0  0  0  0  0  0  0  0  0  0  0  0
  -26.5910  -34.8740   22.4120 O   0  0  0  0  0  0  0  0  0  0  0  0
  -24.9920  -34.0950   25.0070 H   0  0  0  0  0  0  0  0  0  0  0  0
  -24.1890  -36.7680   23.0740 C   0  0  0  0  0  1  0  0  0  0  0  0
  -25.4290  -36.3730   23.8900 C   0  0  0  0  0  3  0  0  0  0  0  0
  -27.5630  -37.2620   24.7160 C   0  0  0  0  0  1  0  0  0  0  0  0
  -26.4610  -37.4260   23.7730 N   0  0  0  0  0  0  0  0  0  0  0  0
  -26.0530  -38.3470   23.9180 H   0  0  0  0  0  0  0  0  0  0  0  0
  -26.4120  -31.7660   25.1590 C   0  0  1  0  0  0  0  0  0  0  0  0
  -25.3190  -31.5280   26.2250 C   0  0  0  0  0  1  0  0  0  0  0  0
  -26.9990  -30.3900   24.7660 C   0  0  0  0  0  1  0  0  0  0  0  0
  -27.5610  -32.5630   25.8220 C   0  0  0  0  0  1  0  0  0  0  0  0
  1  3  1  0
  2  4  1  0
  2  7  1  0
  9  4  1  6
  7 13  1  0
  7  1  1  0
  8 54  1  0
  8  5  1  0
  9  6  1  0
  9  5  1  0
  9  3  1  0
 10 12  1  0
 10  8  1  0
 10  6  1  0
 11 10  1  0
 13 14  1  0
 15 13  1  0
 16 13  1  0
 16 17  1  0
 18 17  1  0
 19 24  1  0
 20 21  1  0
 20 19  1  0
 22 21  1  0
 22 29  1  0
 22 23  1  0
 24 18  1  0
 24 23  1  0
 25 18  2  0
 26 27  2  0
 27 46  1  0
 28 27  1  0
 28 31  1  0
 29 26  1  0
 29 30  1  0
 30 28  2  0
 31 32  1  0
 32 33  2  0
 34 37  1  0
 34 33  1  0
 35 34  2  0
 36 35  1  0
 36 31  2  0
 37 38  1  0
 38 39  1  0
 39 40  2  0
 41 40  1  0
 41 45  1  0
 42 41  2  0
 43 38  2  0
 43 42  1  0
 44 43  1  0
 46 47  1  0
 47 50  1  0
 47 49  1  0
 48 46  2  0
 51 52  1  0
 51 26  1  0
 53 51  1  0
 54 55  1  0
 56 58  1  0
 56 55  1  0
 57 68  2  0
 58 63  1  0
 59 67  1  0
 59 69  1  0
 60 66  1  0
 60 62  1  0
 61 67  1  0
 62 63  2  0
 62 61  1  0
 64 65  1  0
 64 58  2  0
 65 60  2  0
 66 59  1  0
 67 57  1  0
 69 71  2  0
 70 69  1  0
 72 70  1  0
 73 82  2  0
 73 78  1  0
 74 70  1  0
 74 78  1  0
 75 74  1  0
 76 77  1  0
 76 75  1  0
 77 73  1  0
 78 79  2  0
 79 80  1  0
 81 80  2  0
 82 81  1  0
 83 57  1  0
 83 84  1  0
 83 93  1  0
 84 87  1  0
 85 89  1  0
 85 84  1  0
 86 85  2  0
 89 88  1  0
 91 89  1  0
 91 92  1  0
 91 90  1  0
 93 96  1  1
 93 94  1  0
 95 93  1  0
M  ISO  4  17 100  18 100  55 101  56 101
M  END
>  <TORSDO>  (9) 
F 21

>  <SCORE>  (9) 
-13.744

>  <name>  (9) 
8

>  <ligand_id>  (9) 
8

>  <original_smiles>  (9) 
[H]c1c([H])c([H])c2c(c1[H])C([H])([H])C([H])([H])C([H])([H])C2([H])N([H])C(=O)C1([H])N(C(=O)C([H])(N([H])C(=O)C([H])(N([H])C([H])([H])[H])C([H])([H])[H])C(C([H])([H])[H])(C([H])([H])[H])C([H])([H])[H])C([H])([H])c2c([H])c(OC([H])([H])C([H])([H])C3([H])C([H])([H])C4(C([H])([H])C([H])([H])C([H])([N+]([H])([H])C([H])([H])C([H])([H])C(=O)N5C([H])([H])C([H])([H])C([H])([H])C([H])(n6nc(-c7c([H])c([H])c(Oc8c([H])c([H])c(F)c([H])c8F)c([H])c7[H])c(C(=O)N([H])[H])c6N([H])[H])C5([H])[H])C([H])([H])C4([H])[H])C([H])([H])[N+]3([H])[H])c([H])c([H])c2C1([H])[H]

>  <smiles>  (9) 
[H]c1c([H])c([H])c2c(c1[H])C([H])([H])C([H])([H])C([H])([H])C2([H])N([H])C(=O)C1([H])N(C(=O)C([H])(N([H])C(=O)C([H])(N([H])C([H])([H])[H])C([H])([H])[H])C(C([H])([H])[H])(C([H])([H])[H])C([H])([H])[H])C([H])([H])c2c([H])c(OC([H])([H])C([H])([H])C3([H])C([H])([H])C4(C([H])([H])C([H])([H])C([H])([N+]([H])([H])C([H])([H])C([H])([H])C(=O)N5C([H])([H])C([H])([H])C([H])([H])C([H])(n6nc(-c7c([H])c([H])c(Oc8c([H])c([H])c(F)c([H])c8F)c([H])c7[H])c(C(=O)N([H])[H])c6N([H])[H])C5([H])[H])C([H])([H])C4([H])[H])C([H])([H])[N+]3([H])[H])c([H])c([H])c2C1([H])[H]

$$$$
9:0:0
     RDKit          3D

 95103  0  0  1  0  0  0  0  0999 V2000
  -28.7070  -23.4830   18.5660 C   0  0  0  0  0  3  0  0  0  0  0  0
  -28.4990  -24.8640   18.7260 C   0  0  0  0  0  3  0  0  0  0  0  0
  -28.6470  -24.6070   21.1460 C   0  0  0  0  0  3  0  0  0  0  0  0
  -28.9270  -22.6550   19.6890 C   0  0  0  0  0  0  0  0  0  0  0  0
  -28.4800  -25.4320   20.0110 C   0  0  0  0  0  0  0  0  0  0  0  0
  -28.8800  -23.2220   20.9900 C   0  0  0  0  0  0  0  0  0  0  0  0
  -30.8550  -21.0500   19.5280 C   0  0  0  0  0  1  0  0  0  0  0  0
  -29.3230  -21.2030   19.4290 C   0  0  0  0  0  3  0  0  0  0  0  0
  -28.6110  -20.2350   20.2950 N   0  0  0  0  0  4  0  0  0  0  0  0
  -29.0110  -20.3020   21.2190 H   0  0  0  0  0  0  0  0  0  0  0  0
  -27.6530  -20.5320   20.3730 H   0  0  0  0  0  0  0  0  0  0  0  0
  -28.6290  -18.8490   19.7750 C   0  0  0  0  0  2  0  0  0  0  0  0
  -29.1020  -17.7940   20.7980 C   0  0  0  0  0  2  0  0  0  0  0  0
  -29.8830  -16.6690   20.0900 C   0  0  0  0  0  2  0  0  0  0  0  0
  -30.6490  -14.3780   20.3810 C   0  0  0  0  0  0  0  0  0  0  0  0
  -30.3230  -12.2500   19.2120 C   0  0  0  0  0  2  0  0  0  0  0  0
  -29.3680  -12.5140   18.0280 C   0  0  0  0  0  2  0  0  0  0  0  0
  -27.8950  -12.4010   18.4690 C   0  0  0  0  0  2  0  0  0  0  0  0
  -27.5890  -13.2030   19.7640 C   0  0  0  0  0  3  0  0  0  0  0  0
  -28.6520  -12.9190   20.8520 C   0  0  0  0  0  2  0  0  0  0  0  0
  -29.9810  -13.2010   20.2780 N   0  0  0  0  0  0  0  0  0  0  0  0
  -31.7590  -14.5820   19.8820 O   0  0  0  0  0  0  0  0  0  0  0  0
  -29.8920  -15.3970   20.8100 N   0  0  0  0  0  0  0  0  0  0  0  0
  -29.0310  -15.1260   21.2610 H   0  0  0  0  0  0  0  0  0  0  0  0
  -25.1930  -13.8300   20.4740 C   0  0  0  0  0  0  0  0  0  0  0  0
  -24.1240  -13.0640   20.8540 C   0  0  0  0  0  0  0  0  0  0  0  0
  -24.5780  -11.7090   20.8270 C   0  0  0  0  0  0  0  0  0  0  0  0
  -26.2350  -12.9420   20.2460 N   0  0  0  0  0  0  0  0  0  0  0  0
  -25.8660  -11.6630   20.5120 N   0  0  0  0  0  0  0  0  0  0  0  0
  -23.8490  -10.4500   21.0280 C   0  0  0  0  0  0  0  0  0  0  0  0
  -24.2930   -9.4800   21.9530 C   0  0  0  0  0  3  0  0  0  0  0  0
  -23.5630   -8.2880   22.1450 C   0  0  0  0  0  3  0  0  0  0  0  0
  -22.3750   -8.0560   21.4100 C   0  0  0  0  0  0  0  0  0  0  0  0
  -21.9500   -9.0170   20.4770 C   0  0  0  0  0  3  0  0  0  0  0  0
  -22.6810  -10.2010   20.2840 C   0  0  0  0  0  3  0  0  0  0  0  0
  -21.6180   -6.9130   21.5090 O   0  0  0  0  0  0  0  0  0  0  0  0
  -21.5990   -6.1610   22.6560 C   0  0  0  0  0  0  0  0  0  0  0  0
  -21.2190   -6.7090   23.9010 C   0  0  0  0  0  3  0  0  0  0  0  0
  -21.1420   -5.8830   25.0420 C   0  0  0  0  0  3  0  0  0  0  0  0
  -21.4370   -4.5100   24.9380 C   0  0  0  0  0  0  0  0  0  0  0  0
  -21.8110   -3.9630   23.6990 C   0  0  0  0  0  3  0  0  0  0  0  0
  -21.8900   -4.7850   22.5610 C   0  0  0  0  0  0  0  0  0  0  0  0
  -22.2270   -4.2460   21.3640 F   0  0  0  0  0  0  0  0  0  0  0  0
  -21.3590   -3.7160   26.0310 F   0  0  0  0  0  0  0  0  0  0  0  0
  -22.7320  -13.5500   21.1380 C   0  0  0  0  0  0  0  0  0  0  0  0
  -22.0130  -12.8610   22.0190 N   0  0  0  0  0  0  0  0  0  0  0  0
  -22.2920  -14.5740   20.6190 O   0  0  0  0  0  0  0  0  0  0  0  0
  -22.3830  -12.0310   22.4550 H   0  0  0  0  0  0  0  0  0  0  0  0
  -21.0790  -13.1690   22.2570 H   0  0  0  0  0  0  0  0  0  0  0  0
  -25.3630  -15.1980   20.2800 N   0  0  0  0  0  0  0  0  0  0  0  0
  -24.5940  -15.8500   20.3760 H   0  0  0  0  0  0  0  0  0  0  0  0
  -26.2010  -15.6290   19.9090 H   0  0  0  0  0  0  0  0  0  0  0  0
  -29.0870  -22.4430   22.0940 O   0  0  0  0  0  0  0  0  0  0  0  0
  -29.0770  -22.9400   22.9070 H   0  0  0  0  0  0  0  0  0  0  0  0
  -28.4050  -26.7930   20.1480 O   0  0  0  0  0  0  0  0  0  0  0  0
  -24.5710  -31.8810   23.2370 C   0  0  0  0  0  0  0  0  0  0  0  0
  -27.1960  -27.4450   20.1650 C   0  0  0  0  0  0  0  0  0  0  0  0
  -23.3510  -30.4720   21.6110 C   0  0  0  0  0  3  0  0  0  0  0  0
  -24.7920  -28.9270   20.1820 C   0  0  0  0  0  0  0  0  0  0  0  0
  -25.8730  -30.8330   21.3920 C   0  0  0  0  0  2  0  0  0  0  0  0
  -25.9490  -29.4590   20.7630 C   0  0  0  0  0  0  0  0  0  0  0  0
  -27.1510  -28.7230   20.7540 C   0  0  0  0  0  3  0  0  0  0  0  0
  -26.0200  -26.9120   19.5870 C   0  0  0  0  0  3  0  0  0  0  0  0
  -24.8210  -27.6500   19.5950 C   0  0  0  0  0  3  0  0  0  0  0  0
  -23.5480  -29.7860   20.2320 C   0  0  0  0  0  2  0  0  0  0  0  0
  -24.6170  -31.0720   22.1420 N   0  0  0  0  0  0  0  0  0  0  0  0
  -23.4890  -32.1770   23.7650 O   0  0  0  0  0  0  0  0  0  0  0  0
  -22.7070  -29.4530   22.5760 C   0  0  0  0  0  0  0  0  0  0  0  0
  -21.3830  -29.2720   22.4520 N   0  0  0  0  0  0  0  0  0  0  0  0
  -23.3930  -28.8280   23.3900 O   0  0  0  0  0  0  0  0  0  0  0  0
  -20.8930  -29.8190   21.7590 H   0  0  0  0  0  0  0  0  0  0  0  0
  -18.0070  -28.0880   22.9530 C   0  0  0  0  0  0  0  0  0  0  0  0
  -20.5650  -28.3390   23.2250 C   0  0  0  0  0  3  0  0  0  0  0  0
  -20.6640  -26.9060   22.6490 C   0  0  0  0  0  2  0  0  0  0  0  0
  -19.5600  -26.5860   21.6360 C   0  0  0  0  0  2  0  0  0  0  0  0
  -18.1790  -26.7380   22.2810 C   0  0  0  0  0  2  0  0  0  0  0  0
  -19.1280  -28.8470   23.3830 C   0  0  0  0  0  0  0  0  0  0  0  0
  -18.9120  -30.1140   23.9700 C   0  0  0  0  0  3  0  0  0  0  0  0
  -17.6090  -30.6210   24.1310 C   0  0  0  0  0  3  0  0  0  0  0  0
  -16.5030  -29.8560   23.7220 C   0  0  0  0  0  3  0  0  0  0  0  0
  -16.7030  -28.5920   23.1380 C   0  0  0  0  0  3  0  0  0  0  0  0
  -25.8670  -32.4970   23.8560 C   0  0  0  0  0  3  0  0  0  0  0  0
  -25.5710  -33.8920   24.1980 N   0  0  0  0  0  0  0  0  0  0  0  0
  -25.8940  -34.9450   23.4350 C   0  0  0  0  0  0  0  0  0  0  0  0
  -26.5490  -34.8420   22.3940 O   0  0  0  0  0  0  0  0  0  0  0  0
  -24.9870  -34.0450   25.0070 H   0  0  0  0  0  0  0  0  0  0  0  0
  -24.1570  -36.7350   23.1050 C   0  0  0  0  0  1  0  0  0  0  0  0
  -25.4120  -36.3330   23.9000 C   0  0  0  0  0  3  0  0  0  0  0  0
  -27.5600  -37.2170   24.6980 C   0  0  0  0  0  1  0  0  0  0  0  0
  -26.4420  -37.3870   23.7730 N   0  0  0  0  0  0  0  0  0  0  0  0
  -26.0370  -38.3060   23.9280 H   0  0  0  0  0  0  0  0  0  0  0  0
  -26.3930  -31.7100   25.1180 C   0  0  1  0  0  0  0  0  0  0  0  0
  -25.3060  -31.4590   26.1880 C   0  0  0  0  0  1  0  0  0  0  0  0
  -26.9680  -30.3360   24.7010 C   0  0  0  0  0  1  0  0  0  0  0  0
  -27.5480  -32.4960   25.7850 C   0  0  0  0  0  1  0  0  0  0  0  0
  1  2  2  0
  1  4  1  0
  2  5  1  0
  4  6  2  0
  5 55  1  0
  5  3  2  0
  6  3  1  0
  6 53  1  0
  8  7  1  0
  8  4  1  0
  8  9  1  0
  9 11  1  0
  9 10  1  0
 12  9  1  0
 12 13  1  0
 14 13  1  0
 14 23  1  0
 15 23  1  0
 16 21  1  0
 17 18  1  0
 17 16  1  0
 19 18  1  0
 19 28  1  0
 19 20  1  0
 21 15  1  0
 21 20  1  0
 22 15  2  0
 23 24  1  0
 25 26  2  0
 26 45  1  0
 27 26  1  0
 27 30  1  0
 28 25  1  0
 28 29  1  0
 29 27  2  0
 30 31  1  0
 31 32  2  0
 33 36  1  0
 33 32  1  0
 34 33  2  0
 35 34  1  0
 35 30  2  0
 36 37  1  0
 37 38  1  0
 38 39  2  0
 40 39  1  0
 40 44  1  0
 41 40  2  0
 42 37  2  0
 42 41  1  0
 43 42  1  0
 45 46  1  0
 46 49  1  0
 46 48  1  0
 47 45  2  0
 50 51  1  0
 50 25  1  0
 52 50  1  0
 53 54  1  0
 55 57  1  0
 56 67  2  0
 57 62  1  0
 58 66  1  0
 58 68  1  0
 59 65  1  0
 59 61  1  0
 60 66  1  0
 61 60  1  0
 62 61  2  0
 63 64  1  0
 63 57  2  0
 64 59  2  0
 65 58  1  0
 66 56  1  0
 68 70  2  0
 69 68  1  0
 71 69  1  0
 72 81  2  0
 72 77  1  0
 73 69  1  0
 73 77  1  0
 74 73  1  0
 75 76  1  0
 75 74  1  0
 76 72  1  0
 77 78  2  0
 78 79  1  0
 80 79  2  0
 81 80  1  0
 82 56  1  0
 82 83  1  0
 82 92  1  0
 83 86  1  0
 84 88  1  0
 84 83  1  0
 85 84  2  0
 88 87  1  0
 90 88  1  0
 90 91  1  0
 90 89  1  0
 92 95  1  1
 92 93  1  0
 94 92  1  0
M  ISO  4   5 101  15 100  23 100  55 101
M  END
>  <TORSDO>  (10) 
F 22

>  <SCORE>  (10) 
-13.402

>  <name>  (10) 
9

>  <ligand_id>  (10) 
9

>  <original_smiles>  (10) 
[H]Oc1c([H])c(Oc2c([H])c([H])c3c(c2[H])C([H])([H])N(C(=O)C([H])(N([H])C(=O)C([H])(N([H])C([H])([H])[H])C([H])([H])[H])C(C([H])([H])[H])(C([H])([H])[H])C([H])([H])[H])C([H])(C(=O)N([H])C2([H])c4c([H])c([H])c([H])c([H])c4C([H])([H])C([H])([H])C2([H])[H])C3([H])[H])c([H])c([H])c1C([H])(C([H])([H])[H])[N+]([H])([H])C([H])([H])C([H])([H])C([H])([H])N([H])C(=O)N1C([H])([H])C([H])([H])C([H])([H])C([H])(n2nc(-c3c([H])c([H])c(Oc4c([H])c([H])c(F)c([H])c4F)c([H])c3[H])c(C(=O)N([H])[H])c2N([H])[H])C1([H])[H]

>  <smiles>  (10) 
[H]Oc1c([H])c(Oc2c([H])c([H])c3c(c2[H])C([H])([H])N(C(=O)C([H])(N([H])C(=O)C([H])(N([H])C([H])([H])[H])C([H])([H])[H])C(C([H])([H])[H])(C([H])([H])[H])C([H])([H])[H])C([H])(C(=O)N([H])C2([H])c4c([H])c([H])c([H])c([H])c4C([H])([H])C([H])([H])C2([H])[H])C3([H])[H])c([H])c([H])c1C([H])(C([H])([H])[H])[N+]([H])([H])C([H])([H])C([H])([H])C([H])([H])N([H])C(=O)N1C([H])([H])C([H])([H])C([H])([H])C([H])(n2nc(-c3c([H])c([H])c(Oc4c([H])c([H])c(F)c([H])c4F)c([H])c3[H])c(C(=O)N([H])[H])c2N([H])[H])C1([H])[H]

$$$$
10:0:0
     RDKit          3D

 96104  0  0  1  0  0  0  0  0999 V2000
  -31.2810  -23.2990   20.2790 C   0  0  0  0  0  3  0  0  0  0  0  0
  -30.5830  -24.4560   20.6810 C   0  0  0  0  0  3  0  0  0  0  0  0
  -29.1700  -22.2040   19.7600 C   0  0  0  0  0  3  0  0  0  0  0  0
  -30.5850  -22.1550   19.8170 C   0  0  0  0  0  0  0  0  0  0  0  0
  -29.1760  -24.4880   20.6290 C   0  0  0  0  0  0  0  0  0  0  0  0
  -28.4720  -23.3590   20.1590 C   0  0  0  0  0  0  0  0  0  0  0  0
  -27.1190  -23.3680   20.0960 F   0  0  0  0  0  0  0  0  0  0  0  0
  -31.3680  -20.9340   19.4350 C   0  0  0  0  0  0  0  0  0  0  0  0
  -32.5710  -20.8230   19.7050 O   0  0  0  0  0  0  0  0  0  0  0  0
  -30.6620  -19.7680   18.6810 C   0  0  0  0  0  0  0  0  0  0  0  0
  -30.9300  -18.5740   19.2310 N   0  0  0  0  0  0  0  0  0  0  0  0
  -29.9730  -19.9240   17.6670 O   0  0  0  0  0  0  0  0  0  0  0  0
  -31.5520  -18.5900   20.0300 H   0  0  0  0  0  0  0  0  0  0  0  0
  -30.5580  -17.2780   18.6730 C   0  0  0  0  0  2  0  0  0  0  0  0
  -29.2470  -16.7010   19.2580 C   0  0  0  0  0  2  0  0  0  0  0  0
  -29.1920  -16.4350   20.7890 C   0  0  0  0  0  2  0  0  0  0  0  0
  -30.7080  -14.4590   20.6640 C   0  0  0  0  0  0  0  0  0  0  0  0
  -30.3450  -12.3350   19.4810 C   0  0  0  0  0  2  0  0  0  0  0  0
  -29.4330  -12.5460   18.2600 C   0  0  0  0  0  2  0  0  0  0  0  0
  -27.9540  -12.4110   18.6660 C   0  0  0  0  0  2  0  0  0  0  0  0
  -27.5920  -13.2610   19.9150 C   0  0  0  0  0  3  0  0  0  0  0  0
  -28.6290  -13.0670   21.0450 C   0  0  0  0  0  2  0  0  0  0  0  0
  -29.9670  -13.3330   20.4920 N   0  0  0  0  0  0  0  0  0  0  0  0
  -31.8440  -14.5950   20.2150 O   0  0  0  0  0  0  0  0  0  0  0  0
  -30.1600  -15.4730   21.3390 N   0  0  0  0  0  0  0  0  0  0  0  0
  -30.8710  -15.9610   21.8650 H   0  0  0  0  0  0  0  0  0  0  0  0
  -25.1810  -13.8750   20.5660 C   0  0  0  0  0  0  0  0  0  0  0  0
  -24.1050  -13.1060   20.9150 C   0  0  0  0  0  0  0  0  0  0  0  0
  -24.5680  -11.7550   20.9080 C   0  0  0  0  0  0  0  0  0  0  0  0
  -26.2320  -12.9920   20.3700 N   0  0  0  0  0  0  0  0  0  0  0  0
  -25.8650  -11.7120   20.6330 N   0  0  0  0  0  0  0  0  0  0  0  0
  -23.8380  -10.4940   21.0920 C   0  0  0  0  0  0  0  0  0  0  0  0
  -24.2660   -9.5240   22.0250 C   0  0  0  0  0  3  0  0  0  0  0  0
  -23.5370   -8.3270   22.1980 C   0  0  0  0  0  3  0  0  0  0  0  0
  -22.3670   -8.0920   21.4360 C   0  0  0  0  0  0  0  0  0  0  0  0
  -21.9590   -9.0520   20.4920 C   0  0  0  0  0  3  0  0  0  0  0  0
  -22.6870  -10.2400   20.3200 C   0  0  0  0  0  3  0  0  0  0  0  0
  -21.6110   -6.9480   21.5180 O   0  0  0  0  0  0  0  0  0  0  0  0
  -21.5740   -6.1900   22.6600 C   0  0  0  0  0  0  0  0  0  0  0  0
  -21.1820   -6.7350   23.9030 C   0  0  0  0  0  3  0  0  0  0  0  0
  -21.0890   -5.9050   25.0380 C   0  0  0  0  0  3  0  0  0  0  0  0
  -21.3780   -4.5310   24.9310 C   0  0  0  0  0  0  0  0  0  0  0  0
  -21.7620   -3.9860   23.6940 C   0  0  0  0  0  3  0  0  0  0  0  0
  -21.8580   -4.8130   22.5610 C   0  0  0  0  0  0  0  0  0  0  0  0
  -22.2080   -4.2790   21.3660 F   0  0  0  0  0  0  0  0  0  0  0  0
  -21.2810   -3.7310   26.0180 F   0  0  0  0  0  0  0  0  0  0  0  0
  -22.7020  -13.5850   21.1500 C   0  0  0  0  0  0  0  0  0  0  0  0
  -21.9530  -12.8990   22.0070 N   0  0  0  0  0  0  0  0  0  0  0  0
  -22.2750  -14.6040   20.6090 O   0  0  0  0  0  0  0  0  0  0  0  0
  -22.3090  -12.0740   22.4670 H   0  0  0  0  0  0  0  0  0  0  0  0
  -21.0110  -13.2030   22.2080 H   0  0  0  0  0  0  0  0  0  0  0  0
  -25.3470  -15.2440   20.3770 N   0  0  0  0  0  0  0  0  0  0  0  0
  -24.5760  -15.8970   20.4600 H   0  0  0  0  0  0  0  0  0  0  0  0
  -26.2090  -15.6830   20.0810 H   0  0  0  0  0  0  0  0  0  0  0  0
  -28.4250  -25.7180   21.1070 C   0  0  0  0  0  2  0  0  0  0  0  0
  -28.4040  -26.7550   20.1280 O   0  0  0  0  0  0  0  0  0  0  0  0
  -24.6140  -31.9080   23.2420 C   0  0  0  0  0  0  0  0  0  0  0  0
  -27.2450  -27.4860   20.1510 C   0  0  0  0  0  0  0  0  0  0  0  0
  -23.3960  -30.4900   21.6210 C   0  0  0  0  0  3  0  0  0  0  0  0
  -24.8430  -28.9540   20.1880 C   0  0  0  0  0  0  0  0  0  0  0  0
  -25.9180  -30.8610   21.4010 C   0  0  0  0  0  2  0  0  0  0  0  0
  -26.0020  -29.4920   20.7630 C   0  0  0  0  0  0  0  0  0  0  0  0
  -27.2100  -28.7640   20.7430 C   0  0  0  0  0  3  0  0  0  0  0  0
  -26.0760  -26.9500   19.5760 C   0  0  0  0  0  3  0  0  0  0  0  0
  -24.8720  -27.6790   19.5930 C   0  0  0  0  0  3  0  0  0  0  0  0
  -23.5950  -29.8050   20.2430 C   0  0  0  0  0  2  0  0  0  0  0  0
  -24.6610  -31.0970   22.1490 N   0  0  0  0  0  0  0  0  0  0  0  0
  -23.5330  -32.2030   23.7700 O   0  0  0  0  0  0  0  0  0  0  0  0
  -22.7570  -29.4710   22.5910 C   0  0  0  0  0  0  0  0  0  0  0  0
  -21.4330  -29.2790   22.4690 N   0  0  0  0  0  0  0  0  0  0  0  0
  -23.4480  -28.8540   23.4070 O   0  0  0  0  0  0  0  0  0  0  0  0
  -20.9380  -29.8290   21.7810 H   0  0  0  0  0  0  0  0  0  0  0  0
  -18.0710  -28.0570   22.9680 C   0  0  0  0  0  0  0  0  0  0  0  0
  -20.6250  -28.3410   23.2470 C   0  0  0  0  0  3  0  0  0  0  0  0
  -20.7420  -26.9060   22.6840 C   0  0  0  0  0  2  0  0  0  0  0  0
  -19.6480  -26.5630   21.6700 C   0  0  0  0  0  2  0  0  0  0  0  0
  -18.2620  -26.7020   22.3080 C   0  0  0  0  0  2  0  0  0  0  0  0
  -19.1810  -28.8330   23.3950 C   0  0  0  0  0  0  0  0  0  0  0  0
  -18.9480  -30.1020   23.9710 C   0  0  0  0  0  3  0  0  0  0  0  0
  -17.6390  -30.5930   24.1260 C   0  0  0  0  0  3  0  0  0  0  0  0
  -16.5430  -29.8140   23.7170 C   0  0  0  0  0  3  0  0  0  0  0  0
  -16.7600  -28.5490   23.1430 C   0  0  0  0  0  3  0  0  0  0  0  0
  -25.9070  -32.5310   23.8570 C   0  0  0  0  0  3  0  0  0  0  0  0
  -25.6040  -33.9270   24.1950 N   0  0  0  0  0  0  0  0  0  0  0  0
  -25.9270  -34.9810   23.4340 C   0  0  0  0  0  0  0  0  0  0  0  0
  -26.5870  -34.8800   22.3950 O   0  0  0  0  0  0  0  0  0  0  0  0
  -25.0140  -34.0800   25.0010 H   0  0  0  0  0  0  0  0  0  0  0  0
  -24.1900  -36.7680   23.0970 C   0  0  0  0  0  1  0  0  0  0  0  0
  -25.4400  -36.3670   23.8960 C   0  0  0  0  0  3  0  0  0  0  0  0
  -27.5830  -37.2530   24.7020 C   0  0  0  0  0  1  0  0  0  0  0  0
  -26.4690  -37.4220   23.7740 N   0  0  0  0  0  0  0  0  0  0  0  0
  -26.0630  -38.3410   23.9280 H   0  0  0  0  0  0  0  0  0  0  0  0
  -26.4410  -31.7530   25.1230 C   0  0  1  0  0  0  0  0  0  0  0  0
  -25.3590  -31.5090   26.2000 C   0  0  0  0  0  1  0  0  0  0  0  0
  -27.0220  -30.3780   24.7150 C   0  0  0  0  0  1  0  0  0  0  0  0
  -27.6000  -32.5440   25.7740 C   0  0  0  0  0  1  0  0  0  0  0  0
  1  2  1  0
  3  4  1  0
  3  6  2  0
  4  1  2  0
  5  2  2  0
  5 55  1  0
  6  5  1  0
  7  6  1  0
  8  9  2  0
  8  4  1  0
 10 11  1  0
 10  8  1  0
 11 13  1  0
 12 10  2  0
 14 11  1  0
 14 15  1  0
 15 16  1  0
 16 25  1  0
 17 25  1  0
 18 23  1  0
 19 20  1  0
 19 18  1  0
 21 20  1  0
 21 30  1  0
 21 22  1  0
 23 17  1  0
 23 22  1  0
 24 17  2  0
 25 26  1  0
 27 28  2  0
 28 47  1  0
 29 28  1  0
 29 32  1  0
 30 27  1  0
 30 31  1  0
 31 29  2  0
 32 33  1  0
 33 34  2  0
 35 38  1  0
 35 34  1  0
 36 35  2  0
 37 36  1  0
 37 32  2  0
 38 39  1  0
 39 40  1  0
 40 41  2  0
 42 41  1  0
 42 46  1  0
 43 42  2  0
 44 39  2  0
 44 43  1  0
 45 44  1  0
 47 48  1  0
 48 51  1  0
 48 50  1  0
 49 47  2  0
 52 53  1  0
 52 27  1  0
 54 52  1  0
 56 58  1  0
 56 55  1  0
 57 68  2  0
 58 63  1  0
 59 67  1  0
 59 69  1  0
 60 66  1  0
 60 62  1  0
 61 67  1  0
 62 61  1  0
 63 62  2  0
 64 65  1  0
 64 58  2  0
 65 60  2  0
 66 59  1  0
 67 57  1  0
 69 71  2  0
 70 69  1  0
 72 70  1  0
 73 82  2  0
 73 78  1  0
 74 70  1  0
 74 78  1  0
 75 74  1  0
 76 77  1  0
 76 75  1  0
 77 73  1  0
 78 79  2  0
 79 80  1  0
 81 80  2  0
 82 81  1  0
 83 57  1  0
 83 84  1  0
 83 93  1  0
 84 87  1  0
 85 89  1  0
 85 84  1  0
 86 85  2  0
 89 88  1  0
 91 89  1  0
 91 92  1  0
 91 90  1  0
 93 96  1  1
 93 94  1  0
 95 93  1  0
M  ISO  4  17 100  25 100  55 101  56 101
M  END
>  <TORSDO>  (11) 
F 22

>  <SCORE>  (11) 
-13.278

>  <name>  (11) 
10

>  <ligand_id>  (11) 
10

>  <original_smiles>  (11) 
[H]c1c([H])c([H])c2c(c1[H])C([H])([H])C([H])([H])C([H])([H])C2([H])N([H])C(=O)C1([H])N(C(=O)C([H])(N([H])C(=O)C([H])(N([H])C([H])([H])[H])C([H])([H])[H])C(C([H])([H])[H])(C([H])([H])[H])C([H])([H])[H])C([H])([H])c2c([H])c(OC([H])([H])c3c([H])c([H])c(C(=O)C(=O)N([H])C([H])([H])C([H])([H])C([H])([H])N([H])C(=O)N4C([H])([H])C([H])([H])C([H])([H])C([H])(n5nc(-c6c([H])c([H])c(Oc7c([H])c([H])c(F)c([H])c7F)c([H])c6[H])c(C(=O)N([H])[H])c5N([H])[H])C4([H])[H])c([H])c3F)c([H])c([H])c2C1([H])[H]

>  <smiles>  (11) 
[H]c1c([H])c([H])c2c(c1[H])C([H])([H])C([H])([H])C([H])([H])C2([H])N([H])C(=O)C1([H])N(C(=O)C([H])(N([H])C(=O)C([H])(N([H])C([H])([H])[H])C([H])([H])[H])C(C([H])([H])[H])(C([H])([H])[H])C([H])([H])[H])C([H])([H])c2c([H])c(OC([H])([H])c3c([H])c([H])c(C(=O)C(=O)N([H])C([H])([H])C([H])([H])C([H])([H])N([H])C(=O)N4C([H])([H])C([H])([H])C([H])([H])C([H])(n5nc(-c6c([H])c([H])c(Oc7c([H])c([H])c(F)c([H])c7F)c([H])c6[H])c(C(=O)N([H])[H])c5N([H])[H])C4([H])[H])c([H])c3F)c([H])c([H])c2C1([H])[H]

$$$$
11:0:0
     RDKit          3D

 92101  0  0  1  0  0  0  0  0999 V2000
  -30.6040  -22.1730   24.0590 C   0  0  0  0  0  3  0  0  0  0  0  0
  -31.0630  -20.8750   23.7750 C   0  0  0  0  0  3  0  0  0  0  0  0
  -30.6350  -21.2460   21.4040 C   0  0  0  0  0  3  0  0  0  0  0  0
  -30.1600  -23.0150   23.0160 C   0  0  0  0  0  0  0  0  0  0  0  0
  -30.1630  -22.5420   21.6810 C   0  0  0  0  0  0  0  0  0  0  0  0
  -31.0940  -20.4170   22.4450 C   0  0  0  0  0  0  0  0  0  0  0  0
  -29.6940  -24.4170   23.3500 C   0  0  0  0  0  2  0  0  0  0  0  0
  -29.6550  -23.3920   20.5230 C   0  0  0  0  0  2  0  0  0  0  0  0
  -28.7420  -24.9750   22.2940 C   0  0  0  0  0  2  0  0  0  0  0  0
  -29.3420  -24.8570   20.8810 C   0  0  0  0  0  3  0  0  0  0  0  0
  -31.6560  -19.0520   22.1270 C   0  0  0  0  0  2  0  0  0  0  0  0
  -30.6150  -17.9280   22.2050 C   0  0  0  0  0  2  0  0  0  0  0  0
  -31.1800  -16.6700   21.5400 C   0  0  0  0  0  2  0  0  0  0  0  0
  -30.1950  -15.4880   21.4160 C   0  0  0  0  0  2  0  0  0  0  0  0
  -30.6730  -14.4420   20.3930 C   0  0  0  0  0  0  0  0  0  0  0  0
  -30.2750  -12.3870   19.0920 C   0  0  0  0  0  2  0  0  0  0  0  0
  -29.3110  -12.6690   17.9250 C   0  0  0  0  0  2  0  0  0  0  0  0
  -27.8500  -12.5130   18.3870 C   0  0  0  0  0  2  0  0  0  0  0  0
  -27.5510  -13.3010   19.6910 C   0  0  0  0  0  3  0  0  0  0  0  0
  -28.6280  -13.0300   20.7650 C   0  0  0  0  0  2  0  0  0  0  0  0
  -29.9460  -13.3170   20.1800 N   0  0  0  0  0  0  0  0  0  0  0  0
  -31.7070  -14.6750   19.7570 O   0  0  0  0  0  0  0  0  0  0  0  0
  -25.1540  -13.8770   20.4310 C   0  0  0  0  0  0  0  0  0  0  0  0
  -24.1020  -13.0890   20.8160 C   0  0  0  0  0  0  0  0  0  0  0  0
  -24.5810  -11.7440   20.7790 C   0  0  0  0  0  0  0  0  0  0  0  0
  -26.2090  -13.0100   20.1880 N   0  0  0  0  0  0  0  0  0  0  0  0
  -25.8660  -11.7230   20.4520 N   0  0  0  0  0  0  0  0  0  0  0  0
  -23.8770  -10.4720   20.9810 C   0  0  0  0  0  0  0  0  0  0  0  0
  -24.3320   -9.5160   21.9160 C   0  0  0  0  0  3  0  0  0  0  0  0
  -23.6270   -8.3080   22.1050 C   0  0  0  0  0  3  0  0  0  0  0  0
  -22.4530   -8.0470   21.3580 C   0  0  0  0  0  0  0  0  0  0  0  0
  -22.0170   -8.9920   20.4130 C   0  0  0  0  0  3  0  0  0  0  0  0
  -22.7230  -10.1920   20.2220 C   0  0  0  0  0  3  0  0  0  0  0  0
  -21.7170   -6.8910   21.4570 O   0  0  0  0  0  0  0  0  0  0  0  0
  -21.6830   -6.1550   22.6150 C   0  0  0  0  0  0  0  0  0  0  0  0
  -21.2580   -6.7130   23.8410 C   0  0  0  0  0  3  0  0  0  0  0  0
  -21.1740   -5.9040   24.9910 C   0  0  0  0  0  3  0  0  0  0  0  0
  -21.5030   -4.5370   24.9160 C   0  0  0  0  0  0  0  0  0  0  0  0
  -21.9220   -3.9790   23.6960 C   0  0  0  0  0  3  0  0  0  0  0  0
  -22.0090   -4.7860   22.5480 C   0  0  0  0  0  0  0  0  0  0  0  0
  -22.3920   -4.2380   21.3700 F   0  0  0  0  0  0  0  0  0  0  0  0
  -21.4150   -3.7570   26.0200 F   0  0  0  0  0  0  0  0  0  0  0  0
  -22.7020  -13.5460   21.1110 C   0  0  0  0  0  0  0  0  0  0  0  0
  -22.0000  -12.8390   21.9900 N   0  0  0  0  0  0  0  0  0  0  0  0
  -22.2410  -14.5650   20.6000 O   0  0  0  0  0  0  0  0  0  0  0  0
  -22.3870  -12.0140   22.4240 H   0  0  0  0  0  0  0  0  0  0  0  0
  -21.0630  -13.1280   22.2330 H   0  0  0  0  0  0  0  0  0  0  0  0
  -25.2960  -15.2490   20.2490 N   0  0  0  0  0  0  0  0  0  0  0  0
  -24.5220  -15.8940   20.3730 H   0  0  0  0  0  0  0  0  0  0  0  0
  -26.1410  -15.7010   19.9250 H   0  0  0  0  0  0  0  0  0  0  0  0
  -28.4120  -25.4940   19.8420 C   0  0  0  0  0  2  0  0  0  0  0  0
  -28.3660  -26.8900   20.1230 O   0  0  0  0  0  0  0  0  0  0  0  0
  -24.5630  -31.9790   23.2740 C   0  0  0  0  0  0  0  0  0  0  0  0
  -27.1560  -27.5430   20.1490 C   0  0  0  0  0  0  0  0  0  0  0  0
  -23.3300  -30.5770   21.6530 C   0  0  0  0  0  3  0  0  0  0  0  0
  -24.7580  -29.0330   20.2090 C   0  0  0  0  0  0  0  0  0  0  0  0
  -25.8510  -30.9220   21.4280 C   0  0  0  0  0  2  0  0  0  0  0  0
  -25.9200  -29.5530   20.7880 C   0  0  0  0  0  0  0  0  0  0  0  0
  -27.1180  -28.8120   20.7620 C   0  0  0  0  0  3  0  0  0  0  0  0
  -25.9730  -27.0310   19.5640 C   0  0  0  0  0  3  0  0  0  0  0  0
  -24.7760  -27.7680   19.6010 C   0  0  0  0  0  3  0  0  0  0  0  0
  -23.5190  -29.8960   20.2700 C   0  0  0  0  0  2  0  0  0  0  0  0
  -24.6000  -31.1720   22.1780 N   0  0  0  0  0  0  0  0  0  0  0  0
  -23.4870  -32.2790   23.8110 O   0  0  0  0  0  0  0  0  0  0  0  0
  -22.6910  -29.5540   22.6200 C   0  0  0  0  0  0  0  0  0  0  0  0
  -21.3700  -29.3610   22.4910 N   0  0  0  0  0  0  0  0  0  0  0  0
  -23.3790  -28.9430   23.4410 O   0  0  0  0  0  0  0  0  0  0  0  0
  -20.8780  -29.9090   21.7980 H   0  0  0  0  0  0  0  0  0  0  0  0
  -18.0080  -28.1250   22.9590 C   0  0  0  0  0  0  0  0  0  0  0  0
  -20.5570  -28.4230   23.2630 C   0  0  0  0  0  3  0  0  0  0  0  0
  -20.6890  -26.9850   22.7090 C   0  0  0  0  0  2  0  0  0  0  0  0
  -19.6060  -26.6290   21.6870 C   0  0  0  0  0  2  0  0  0  0  0  0
  -18.2130  -26.7670   22.3100 C   0  0  0  0  0  2  0  0  0  0  0  0
  -19.1080  -28.9090   23.3930 C   0  0  0  0  0  0  0  0  0  0  0  0
  -18.8670  -30.1810   23.9570 C   0  0  0  0  0  3  0  0  0  0  0  0
  -17.5530  -30.6690   24.0940 C   0  0  0  0  0  3  0  0  0  0  0  0
  -16.4660  -29.8810   23.6790 C   0  0  0  0  0  3  0  0  0  0  0  0
  -16.6930  -28.6120   23.1160 C   0  0  0  0  0  3  0  0  0  0  0  0
  -25.8630  -32.5940   23.8830 C   0  0  0  0  0  3  0  0  0  0  0  0
  -25.5710  -33.9940   24.2150 N   0  0  0  0  0  0  0  0  0  0  0  0
  -25.9010  -35.0410   23.4480 C   0  0  0  0  0  0  0  0  0  0  0  0
  -26.5600  -34.9310   22.4110 O   0  0  0  0  0  0  0  0  0  0  0  0
  -24.9860  -34.1540   25.0220 H   0  0  0  0  0  0  0  0  0  0  0  0
  -24.1810  -36.8410   23.1030 C   0  0  0  0  0  1  0  0  0  0  0  0
  -25.4240  -36.4320   23.9070 C   0  0  0  0  0  3  0  0  0  0  0  0
  -27.5690  -37.3050   24.7230 C   0  0  0  0  0  1  0  0  0  0  0  0
  -26.4620  -37.4770   23.7850 N   0  0  0  0  0  0  0  0  0  0  0  0
  -26.0630  -38.4000   23.9330 H   0  0  0  0  0  0  0  0  0  0  0  0
  -26.3890  -31.8170   25.1540 C   0  0  1  0  0  0  0  0  0  0  0  0
  -25.3040  -31.5840   26.2300 C   0  0  0  0  0  1  0  0  0  0  0  0
  -26.9610  -30.4390   24.7490 C   0  0  0  0  0  1  0  0  0  0  0  0
  -27.5490  -32.6050   25.8060 C   0  0  0  0  0  1  0  0  0  0  0  0
  2  1  1  0
  3  5  2  0
  3  6  1  0
  4  7  1  0
  4  1  2  0
  5  4  1  0
  6  2  2  0
  8 10  1  0
  8  5  1  0
  9  7  1  0
 10 51  1  0
 10  9  1  0
 11 12  1  0
 11  6  1  0
 13 12  1  0
 14 13  1  0
 15 14  1  0
 16 21  1  0
 17 18  1  0
 17 16  1  0
 19 18  1  0
 19 26  1  0
 19 20  1  0
 21 15  1  0
 21 20  1  0
 22 15  2  0
 23 24  2  0
 24 43  1  0
 25 24  1  0
 25 28  1  0
 26 23  1  0
 26 27  1  0
 27 25  2  0
 28 29  1  0
 29 30  2  0
 31 34  1  0
 31 30  1  0
 32 31  2  0
 33 32  1  0
 33 28  2  0
 34 35  1  0
 35 36  1  0
 36 37  2  0
 38 37  1  0
 38 42  1  0
 39 38  2  0
 40 35  2  0
 40 39  1  0
 41 40  1  0
 43 44  1  0
 44 47  1  0
 44 46  1  0
 45 43  2  0
 48 49  1  0
 48 23  1  0
 50 48  1  0
 51 52  1  0
 52 54  1  0
 53 64  2  0
 54 59  1  0
 55 63  1  0
 55 65  1  0
 56 62  1  0
 56 58  1  0
 57 63  1  0
 58 57  1  0
 59 58  2  0
 60 61  1  0
 60 54  2  0
 61 56  2  0
 62 55  1  0
 63 53  1  0
 65 67  2  0
 66 65  1  0
 68 66  1  0
 69 78  2  0
 69 74  1  0
 70 66  1  0
 70 74  1  0
 71 70  1  0
 72 73  1  0
 72 71  1  0
 73 69  1  0
 74 75  2  0
 75 76  1  0
 77 76  2  0
 78 77  1  0
 79 53  1  0
 79 80  1  0
 79 89  1  0
 80 83  1  0
 81 85  1  0
 81 80  1  0
 82 81  2  0
 85 84  1  0
 87 85  1  0
 87 88  1  0
 87 86  1  0
 89 92  1  1
 89 90  1  0
 91 89  1  0
M  ISO  4  14 100  15 100  51 101  52 101
M  END
>  <TORSDO>  (12) 
F 21

>  <SCORE>  (12) 
-13.814

>  <name>  (12) 
11

>  <ligand_id>  (12) 
11

>  <original_smiles>  (12) 
[H]c1c([H])c([H])c2c(c1[H])C([H])([H])C([H])([H])C([H])([H])C2([H])N([H])C(=O)C1([H])N(C(=O)C([H])(N([H])C(=O)C([H])(N([H])C([H])([H])[H])C([H])([H])[H])C(C([H])([H])[H])(C([H])([H])[H])C([H])([H])[H])C([H])([H])c2c([H])c(OC([H])([H])C3([H])C([H])([H])c4c([H])c(C([H])([H])C([H])([H])C([H])([H])C([H])([H])C(=O)N5C([H])([H])C([H])([H])C([H])([H])C([H])(n6nc(-c7c([H])c([H])c(Oc8c([H])c([H])c(F)c([H])c8F)c([H])c7[H])c(C(=O)N([H])[H])c6N([H])[H])C5([H])[H])c([H])c([H])c4C([H])([H])C3([H])[H])c([H])c([H])c2C1([H])[H]

>  <smiles>  (12) 
[H]c1c([H])c([H])c2c(c1[H])C([H])([H])C([H])([H])C([H])([H])C2([H])N([H])C(=O)C1([H])N(C(=O)C([H])(N([H])C(=O)C([H])(N([H])C([H])([H])[H])C([H])([H])[H])C(C([H])([H])[H])(C([H])([H])[H])C([H])([H])[H])C([H])([H])c2c([H])c(OC([H])([H])C3([H])C([H])([H])c4c([H])c(C([H])([H])C([H])([H])C([H])([H])C([H])([H])C(=O)N5C([H])([H])C([H])([H])C([H])([H])C([H])(n6nc(-c7c([H])c([H])c(Oc8c([H])c([H])c(F)c([H])c8F)c([H])c7[H])c(C(=O)N([H])[H])c6N([H])[H])C5([H])[H])c([H])c([H])c4C([H])([H])C3([H])[H])c([H])c([H])c2C1([H])[H]

$$$$
12:0:0
     RDKit          3D

 94102  0  0  1  0  0  0  0  0999 V2000
  -28.1520  -21.1900   19.9330 C   0  0  0  0  0  3  0  0  0  0  0  0
  -29.5960  -21.4830   21.8700 C   0  0  0  0  0  3  0  0  0  0  0  0
  -27.7050  -22.5160   20.0630 C   0  0  0  0  0  3  0  0  0  0  0  0
  -29.1420  -22.8160   22.0050 C   0  0  0  0  0  3  0  0  0  0  0  0
  -29.0870  -20.6520   20.8430 C   0  0  0  0  0  0  0  0  0  0  0  0
  -28.1760  -23.3340   21.1120 C   0  0  0  0  0  0  0  0  0  0  0  0
  -29.4530  -19.1970   20.7340 C   0  0  0  0  0  0  0  0  0  0  0  0
  -30.7000  -18.8520   21.0760 N   0  0  0  0  0  0  0  0  0  0  0  0
  -28.6460  -18.3850   20.2740 O   0  0  0  0  0  0  0  0  0  0  0  0
  -31.3090  -19.5780   21.4280 H   0  0  0  0  0  0  0  0  0  0  0  0
  -31.2740  -17.5300   20.8300 C   0  0  0  0  0  2  0  0  0  0  0  0
  -30.9450  -16.5080   21.9480 C   0  0  0  0  0  2  0  0  0  0  0  0
  -30.8320  -14.4330   20.5250 C   0  0  0  0  0  0  0  0  0  0  0  0
  -30.4570  -12.3560   19.2470 C   0  0  0  0  0  2  0  0  0  0  0  0
  -29.5200  -12.6030   18.0490 C   0  0  0  0  0  2  0  0  0  0  0  0
  -28.0460  -12.4680   18.4720 C   0  0  0  0  0  2  0  0  0  0  0  0
  -27.7150  -13.2850   19.7490 C   0  0  0  0  0  3  0  0  0  0  0  0
  -28.7600  -13.0230   20.8570 C   0  0  0  0  0  2  0  0  0  0  0  0
  -30.1020  -13.3070   20.3110 N   0  0  0  0  0  0  0  0  0  0  0  0
  -31.8720  -14.6930   19.9150 O   0  0  0  0  0  0  0  0  0  0  0  0
  -30.3510  -15.2560   21.4670 N   0  0  0  0  0  0  0  0  0  0  0  0
  -29.5080  -14.9500   21.9290 H   0  0  0  0  0  0  0  0  0  0  0  0
  -25.3050  -13.9010   20.4150 C   0  0  0  0  0  0  0  0  0  0  0  0
  -24.2330  -13.1350   20.7860 C   0  0  0  0  0  0  0  0  0  0  0  0
  -24.6950  -11.7830   20.7820 C   0  0  0  0  0  0  0  0  0  0  0  0
  -26.3550  -13.0180   20.2140 N   0  0  0  0  0  0  0  0  0  0  0  0
  -25.9890  -11.7400   20.4870 N   0  0  0  0  0  0  0  0  0  0  0  0
  -23.9680  -10.5230   20.9870 C   0  0  0  0  0  0  0  0  0  0  0  0
  -24.3970   -9.5680   21.9340 C   0  0  0  0  0  3  0  0  0  0  0  0
  -23.6720   -8.3730   22.1260 C   0  0  0  0  0  3  0  0  0  0  0  0
  -22.5020   -8.1250   21.3700 C   0  0  0  0  0  0  0  0  0  0  0  0
  -22.0900   -9.0680   20.4120 C   0  0  0  0  0  3  0  0  0  0  0  0
  -22.8170  -10.2550   20.2180 C   0  0  0  0  0  3  0  0  0  0  0  0
  -21.7490   -6.9800   21.4700 O   0  0  0  0  0  0  0  0  0  0  0  0
  -21.6990   -6.2500   22.6290 C   0  0  0  0  0  0  0  0  0  0  0  0
  -21.2790   -6.8190   23.8520 C   0  0  0  0  0  3  0  0  0  0  0  0
  -21.1760   -6.0150   25.0050 C   0  0  0  0  0  3  0  0  0  0  0  0
  -21.4820   -4.6430   24.9360 C   0  0  0  0  0  0  0  0  0  0  0  0
  -21.8940   -4.0730   23.7200 C   0  0  0  0  0  3  0  0  0  0  0  0
  -21.9990   -4.8730   22.5680 C   0  0  0  0  0  0  0  0  0  0  0  0
  -22.3770   -4.3150   21.3930 F   0  0  0  0  0  0  0  0  0  0  0  0
  -21.3760   -3.8690   26.0420 F   0  0  0  0  0  0  0  0  0  0  0  0
  -22.8330  -13.6150   21.0390 C   0  0  0  0  0  0  0  0  0  0  0  0
  -22.0990  -12.9320   21.9100 N   0  0  0  0  0  0  0  0  0  0  0  0
  -22.3980  -14.6330   20.5010 O   0  0  0  0  0  0  0  0  0  0  0  0
  -22.4640  -12.1100   22.3680 H   0  0  0  0  0  0  0  0  0  0  0  0
  -21.1590  -13.2340   22.1230 H   0  0  0  0  0  0  0  0  0  0  0  0
  -25.4700  -15.2690   20.2140 N   0  0  0  0  0  0  0  0  0  0  0  0
  -24.7010  -15.9250   20.3010 H   0  0  0  0  0  0  0  0  0  0  0  0
  -26.3300  -15.7050   19.9060 H   0  0  0  0  0  0  0  0  0  0  0  0
  -26.7320  -24.7900   22.5970 C   0  0  0  0  0  1  0  0  0  0  0  0
  -27.5630  -24.7200   21.3080 C   0  0  0  0  0  3  0  0  0  0  0  0
  -28.5650  -25.9060   21.1800 C   0  0  0  0  0  2  0  0  0  0  0  0
  -28.3500  -26.7340   20.0280 O   0  0  0  0  0  0  0  0  0  0  0  0
  -24.5810  -31.9000   23.2070 C   0  0  0  0  0  0  0  0  0  0  0  0
  -27.2050  -27.4910   20.0680 C   0  0  0  0  0  0  0  0  0  0  0  0
  -23.3670  -30.5040   21.5670 C   0  0  0  0  0  3  0  0  0  0  0  0
  -24.8120  -28.9860   20.1160 C   0  0  0  0  0  0  0  0  0  0  0  0
  -25.8910  -30.8650   21.3590 C   0  0  0  0  0  2  0  0  0  0  0  0
  -25.9720  -29.5010   20.7110 C   0  0  0  0  0  0  0  0  0  0  0  0
  -27.1730  -28.7560   20.6960 C   0  0  0  0  0  3  0  0  0  0  0  0
  -26.0400  -27.0040   19.4400 C   0  0  0  0  0  3  0  0  0  0  0  0
  -24.8390  -27.7340   19.4810 C   0  0  0  0  0  3  0  0  0  0  0  0
  -23.5670  -29.8400   20.1790 C   0  0  0  0  0  2  0  0  0  0  0  0
  -24.6330  -31.0990   22.1050 N   0  0  0  0  0  0  0  0  0  0  0  0
  -23.4980  -32.1900   23.7350 O   0  0  0  0  0  0  0  0  0  0  0  0
  -22.7260  -29.4690   22.5220 C   0  0  0  0  0  0  0  0  0  0  0  0
  -21.3990  -29.2880   22.4050 N   0  0  0  0  0  0  0  0  0  0  0  0
  -23.4170  -28.8320   23.3230 O   0  0  0  0  0  0  0  0  0  0  0  0
  -20.9070  -29.8550   21.7290 H   0  0  0  0  0  0  0  0  0  0  0  0
  -18.0280  -28.0990   22.9200 C   0  0  0  0  0  0  0  0  0  0  0  0
  -20.5880  -28.3430   23.1710 C   0  0  0  0  0  3  0  0  0  0  0  0
  -20.6810  -26.9200   22.5720 C   0  0  0  0  0  2  0  0  0  0  0  0
  -19.5670  -26.6140   21.5660 C   0  0  0  0  0  2  0  0  0  0  0  0
  -18.1930  -26.7570   22.2260 C   0  0  0  0  0  2  0  0  0  0  0  0
  -19.1540  -28.8500   23.3510 C   0  0  0  0  0  0  0  0  0  0  0  0
  -18.9470  -30.1070   23.9600 C   0  0  0  0  0  3  0  0  0  0  0  0
  -17.6460  -30.6120   24.1440 C   0  0  0  0  0  3  0  0  0  0  0  0
  -16.5350  -29.8540   23.7340 C   0  0  0  0  0  3  0  0  0  0  0  0
  -16.7260  -28.6000   23.1270 C   0  0  0  0  0  3  0  0  0  0  0  0
  -25.8750  -32.5140   23.8310 C   0  0  0  0  0  3  0  0  0  0  0  0
  -25.5710  -33.9070   24.1800 N   0  0  0  0  0  0  0  0  0  0  0  0
  -25.8900  -34.9650   23.4230 C   0  0  0  0  0  0  0  0  0  0  0  0
  -26.5480  -34.8700   22.3810 O   0  0  0  0  0  0  0  0  0  0  0  0
  -24.9890  -34.0540   24.9910 H   0  0  0  0  0  0  0  0  0  0  0  0
  -24.1520  -36.7560   23.1020 C   0  0  0  0  0  1  0  0  0  0  0  0
  -25.4040  -36.3490   23.8960 C   0  0  0  0  0  3  0  0  0  0  0  0
  -27.5480  -37.2320   24.7050 C   0  0  0  0  0  1  0  0  0  0  0  0
  -26.4320  -37.4050   23.7800 N   0  0  0  0  0  0  0  0  0  0  0  0
  -26.0260  -38.3230   23.9420 H   0  0  0  0  0  0  0  0  0  0  0  0
  -26.4010  -31.7250   25.0910 C   0  0  1  0  0  0  0  0  0  0  0  0
  -25.3160  -31.4720   26.1640 C   0  0  0  0  0  1  0  0  0  0  0  0
  -26.9810  -30.3520   24.6750 C   0  0  0  0  0  1  0  0  0  0  0  0
  -27.5580  -32.5120   25.7530 C   0  0  0  0  0  1  0  0  0  0  0  0
  1  3  2  0
  1  5  1  0
  2  4  1  0
  3  6  1  0
  5  2  2  0
  6 52  1  0
  6  4  2  0
  7  5  1  0
  7  8  1  0
  8 10  1  0
  9  7  2  0
 11  8  1  0
 11 12  1  0
 13 21  1  0
 14 19  1  0
 15 16  1  0
 15 14  1  0
 17 16  1  0
 17 26  1  0
 17 18  1  0
 19 13  1  0
 19 18  1  0
 20 13  2  0
 21 22  1  0
 21 12  1  0
 23 24  2  0
 24 43  1  0
 25 24  1  0
 25 28  1  0
 26 23  1  0
 26 27  1  0
 27 25  2  0
 28 29  1  0
 29 30  2  0
 31 34  1  0
 31 30  1  0
 32 31  2  0
 33 32  1  0
 33 28  2  0
 34 35  1  0
 35 36  1  0
 36 37  2  0
 38 37  1  0
 38 42  1  0
 39 38  2  0
 40 35  2  0
 40 39  1  0
 41 40  1  0
 43 44  1  0
 44 47  1  0
 44 46  1  0
 45 43  2  0
 48 49  1  0
 48 23  1  0
 50 48  1  0
 52 51  1  0
 53 52  1  0
 54 56  1  0
 54 53  1  0
 55 66  2  0
 56 61  1  0
 57 65  1  0
 57 67  1  0
 58 64  1  0
 58 60  1  0
 59 65  1  0
 60 59  1  0
 61 60  2  0
 62 63  1  0
 62 56  2  0
 63 58  2  0
 64 57  1  0
 65 55  1  0
 67 69  2  0
 68 67  1  0
 70 68  1  0
 71 80  2  0
 71 76  1  0
 72 68  1  0
 72 76  1  0
 73 72  1  0
 74 75  1  0
 74 73  1  0
 75 71  1  0
 76 77  2  0
 77 78  1  0
 79 78  2  0
 80 79  1  0
 81 55  1  0
 81 82  1  0
 81 91  1  0
 82 85  1  0
 83 87  1  0
 83 82  1  0
 84 83  2  0
 87 86  1  0
 89 87  1  0
 89 90  1  0
 89 88  1  0
 91 94  1  1
 91 92  1  0
 93 91  1  0
M  ISO  4  13 100  21 100  53 101  54 101
M  END
>  <TORSDO>  (13) 
F 21

>  <SCORE>  (13) 
-13.762

>  <name>  (13) 
12

>  <ligand_id>  (13) 
12

>  <original_smiles>  (13) 
[H]c1c([H])c([H])c2c(c1[H])C([H])([H])C([H])([H])C([H])([H])C2([H])N([H])C(=O)C1([H])N(C(=O)C([H])(N([H])C(=O)C([H])(N([H])C([H])([H])[H])C([H])([H])[H])C(C([H])([H])[H])(C([H])([H])[H])C([H])([H])[H])C([H])([H])c2c([H])c(OC([H])([H])C([H])(c3c([H])c([H])c(C(=O)N([H])C([H])([H])C([H])([H])N([H])C(=O)N4C([H])([H])C([H])([H])C([H])([H])C([H])(n5nc(-c6c([H])c([H])c(Oc7c([H])c([H])c(F)c([H])c7F)c([H])c6[H])c(C(=O)N([H])[H])c5N([H])[H])C4([H])[H])c([H])c3[H])C([H])([H])[H])c([H])c([H])c2C1([H])[H]

>  <smiles>  (13) 
[H]c1c([H])c([H])c2c(c1[H])C([H])([H])C([H])([H])C([H])([H])C2([H])N([H])C(=O)C1([H])N(C(=O)C([H])(N([H])C(=O)C([H])(N([H])C([H])([H])[H])C([H])([H])[H])C(C([H])([H])[H])(C([H])([H])[H])C([H])([H])[H])C([H])([H])c2c([H])c(OC([H])([H])C([H])(c3c([H])c([H])c(C(=O)N([H])C([H])([H])C([H])([H])N([H])C(=O)N4C([H])([H])C([H])([H])C([H])([H])C([H])(n5nc(-c6c([H])c([H])c(Oc7c([H])c([H])c(F)c([H])c7F)c([H])c6[H])c(C(=O)N([H])[H])c5N([H])[H])C4([H])[H])c([H])c3[H])C([H])([H])[H])c([H])c([H])c2C1([H])[H]

$$$$
13:0:0
     RDKit          3D

 97106  0  0  1  0  0  0  0  0999 V2000
  -31.1240  -19.9350   21.7720 C   0  0  0  0  0  3  0  0  0  0  0  0
  -30.7660  -21.2810   21.9710 C   0  0  0  0  0  3  0  0  0  0  0  0
  -29.3230  -21.2000   20.0120 C   0  0  0  0  0  0  0  0  0  0  0  0
  -29.6390  -19.8100   19.8430 C   0  0  0  0  0  0  0  0  0  0  0  0
  -30.5600  -19.1750   20.7280 C   0  0  0  0  0  0  0  0  0  0  0  0
  -29.8530  -21.9370   21.1180 C   0  0  0  0  0  0  0  0  0  0  0  0
  -28.3990  -21.8260   19.0300 C   0  0  0  0  0  0  0  0  0  0  0  0
  -28.9450  -19.0030   18.7330 C   0  0  0  0  0  2  0  0  0  0  0  0
  -28.9610  -21.9390   17.6130 C   0  0  0  0  0  2  0  0  0  0  0  0
  -29.4110  -19.4020   17.3210 C   0  0  0  0  0  2  0  0  0  0  0  0
  -28.7190  -20.6670   16.7790 C   0  0  0  0  0  2  0  0  0  0  0  0
  -27.2560  -22.2160   19.2820 O   0  0  0  0  0  0  0  0  0  0  0  0
  -29.4950  -23.2530   21.4990 N   0  0  0  0  0  0  0  0  0  0  0  0
  -29.7320  -23.4840   22.4610 H   0  0  0  0  0  0  0  0  0  0  0  0
  -29.5290  -24.4280   20.6100 C   0  0  0  0  0  2  0  0  0  0  0  0
  -28.2530  -25.3080   20.7450 C   0  0  0  0  0  2  0  0  0  0  0  0
  -28.3960  -26.6380   20.2000 O   0  0  0  0  0  0  0  0  0  0  0  0
  -24.6190  -31.8940   23.2300 C   0  0  0  0  0  0  0  0  0  0  0  0
  -27.2380  -27.3960   20.1870 C   0  0  0  0  0  0  0  0  0  0  0  0
  -23.4060  -30.4810   21.6040 C   0  0  0  0  0  3  0  0  0  0  0  0
  -24.8520  -28.9300   20.1830 C   0  0  0  0  0  0  0  0  0  0  0  0
  -25.9380  -30.8220   21.4050 C   0  0  0  0  0  2  0  0  0  0  0  0
  -26.0160  -29.4470   20.7680 C   0  0  0  0  0  0  0  0  0  0  0  0
  -27.2110  -28.6890   20.7630 C   0  0  0  0  0  3  0  0  0  0  0  0
  -26.0580  -26.9020   19.5870 C   0  0  0  0  0  3  0  0  0  0  0  0
  -24.8700  -27.6580   19.5870 C   0  0  0  0  0  3  0  0  0  0  0  0
  -23.6110  -29.7950   20.2280 C   0  0  0  0  0  2  0  0  0  0  0  0
  -24.6730  -31.0780   22.1390 N   0  0  0  0  0  0  0  0  0  0  0  0
  -23.5350  -32.1960   23.7480 O   0  0  0  0  0  0  0  0  0  0  0  0
  -22.7530  -29.4660   22.5700 C   0  0  0  0  0  0  0  0  0  0  0  0
  -21.4310  -29.2800   22.4390 N   0  0  0  0  0  0  0  0  0  0  0  0
  -23.4340  -28.8500   23.3950 O   0  0  0  0  0  0  0  0  0  0  0  0
  -20.9430  -29.8280   21.7460 H   0  0  0  0  0  0  0  0  0  0  0  0
  -18.0540  -28.0900   22.9330 C   0  0  0  0  0  0  0  0  0  0  0  0
  -20.6110  -28.3470   23.2130 C   0  0  0  0  0  3  0  0  0  0  0  0
  -20.7130  -26.9120   22.6470 C   0  0  0  0  0  2  0  0  0  0  0  0
  -19.6140  -26.5840   21.6310 C   0  0  0  0  0  2  0  0  0  0  0  0
  -18.2290  -26.7350   22.2680 C   0  0  0  0  0  2  0  0  0  0  0  0
  -19.1720  -28.8530   23.3630 C   0  0  0  0  0  0  0  0  0  0  0  0
  -18.9520  -30.1190   23.9430 C   0  0  0  0  0  3  0  0  0  0  0  0
  -17.6490  -30.6220   24.1040 C   0  0  0  0  0  3  0  0  0  0  0  0
  -16.5440  -29.8560   23.6920 C   0  0  0  0  0  3  0  0  0  0  0  0
  -16.7480  -28.5930   23.1090 C   0  0  0  0  0  3  0  0  0  0  0  0
  -25.9090  -32.5160   23.8540 C   0  0  0  0  0  3  0  0  0  0  0  0
  -25.6080  -33.9130   24.1880 N   0  0  0  0  0  0  0  0  0  0  0  0
  -25.9400  -34.9650   23.4280 C   0  0  0  0  0  0  0  0  0  0  0  0
  -26.6060  -34.8590   22.3950 O   0  0  0  0  0  0  0  0  0  0  0  0
  -25.0180  -34.0700   24.9930 H   0  0  0  0  0  0  0  0  0  0  0  0
  -24.2160  -36.7600   23.0710 C   0  0  0  0  0  1  0  0  0  0  0  0
  -25.4520  -36.3520   23.8870 C   0  0  0  0  0  3  0  0  0  0  0  0
  -27.5860  -37.2240   24.7290 C   0  0  0  0  0  1  0  0  0  0  0  0
  -26.4860  -37.4040   23.7840 N   0  0  0  0  0  0  0  0  0  0  0  0
  -26.0820  -38.3240   23.9400 H   0  0  0  0  0  0  0  0  0  0  0  0
  -26.4280  -31.7380   25.1270 C   0  0  1  0  0  0  0  0  0  0  0  0
  -25.3350  -31.4990   26.1940 C   0  0  0  0  0  1  0  0  0  0  0  0
  -27.0130  -30.3640   24.7250 C   0  0  0  0  0  1  0  0  0  0  0  0
  -27.5790  -32.5320   25.7880 C   0  0  0  0  0  1  0  0  0  0  0  0
  -30.9450  -17.6880   20.6220 C   0  0  0  0  0  2  0  0  0  0  0  0
  -30.1000  -16.7990   21.5730 C   0  0  0  0  0  2  0  0  0  0  0  0
  -30.6800  -14.4660   20.5870 C   0  0  0  0  0  0  0  0  0  0  0  0
  -30.4400  -12.3470   19.3260 C   0  0  0  0  0  2  0  0  0  0  0  0
  -29.4940  -12.5750   18.1290 C   0  0  0  0  0  2  0  0  0  0  0  0
  -28.0120  -12.4350   18.5410 C   0  0  0  0  0  2  0  0  0  0  0  0
  -27.6720  -13.2280   19.8310 C   0  0  0  0  0  3  0  0  0  0  0  0
  -28.7160  -12.9280   20.9290 C   0  0  0  0  0  2  0  0  0  0  0  0
  -30.0440  -13.2780   20.3910 N   0  0  0  0  0  0  0  0  0  0  0  0
  -31.7980  -14.7190   20.1310 O   0  0  0  0  0  0  0  0  0  0  0  0
  -29.9150  -15.3810   21.2150 N   0  0  0  0  0  0  0  0  0  0  0  0
  -29.0110  -15.0140   21.4730 H   0  0  0  0  0  0  0  0  0  0  0  0
  -25.2640  -13.8520   20.4980 C   0  0  0  0  0  0  0  0  0  0  0  0
  -24.1890  -13.0870   20.8600 C   0  0  0  0  0  0  0  0  0  0  0  0
  -24.6440  -11.7340   20.8400 C   0  0  0  0  0  0  0  0  0  0  0  0
  -26.3090  -12.9640   20.2880 N   0  0  0  0  0  0  0  0  0  0  0  0
  -25.9370  -11.6860   20.5480 N   0  0  0  0  0  0  0  0  0  0  0  0
  -23.9120  -10.4750   21.0290 C   0  0  0  0  0  0  0  0  0  0  0  0
  -24.3270   -9.5140   21.9770 C   0  0  0  0  0  3  0  0  0  0  0  0
  -23.5990   -8.3180   22.1510 C   0  0  0  0  0  3  0  0  0  0  0  0
  -22.4380   -8.0750   21.3770 C   0  0  0  0  0  0  0  0  0  0  0  0
  -22.0430   -9.0240   20.4190 C   0  0  0  0  0  3  0  0  0  0  0  0
  -22.7730  -10.2130   20.2420 C   0  0  0  0  0  3  0  0  0  0  0  0
  -21.6820   -6.9310   21.4590 O   0  0  0  0  0  0  0  0  0  0  0  0
  -21.6030   -6.2030   22.6190 C   0  0  0  0  0  0  0  0  0  0  0  0
  -21.1350   -6.7700   23.8250 C   0  0  0  0  0  3  0  0  0  0  0  0
  -21.0050   -5.9670   24.9750 C   0  0  0  0  0  3  0  0  0  0  0  0
  -21.3330   -4.5980   24.9210 C   0  0  0  0  0  0  0  0  0  0  0  0
  -21.7930   -4.0330   23.7190 C   0  0  0  0  0  3  0  0  0  0  0  0
  -21.9250   -4.8320   22.5710 C   0  0  0  0  0  0  0  0  0  0  0  0
  -22.3510   -4.2770   21.4110 F   0  0  0  0  0  0  0  0  0  0  0  0
  -21.2000   -3.8240   26.0230 F   0  0  0  0  0  0  0  0  0  0  0  0
  -22.7900  -13.5700   21.1160 C   0  0  0  0  0  0  0  0  0  0  0  0
  -22.0490  -12.8760   21.9730 N   0  0  0  0  0  0  0  0  0  0  0  0
  -22.3620  -14.5980   20.5930 O   0  0  0  0  0  0  0  0  0  0  0  0
  -22.4080  -12.0440   22.4160 H   0  0  0  0  0  0  0  0  0  0  0  0
  -21.1100  -13.1820   22.1860 H   0  0  0  0  0  0  0  0  0  0  0  0
  -25.4390  -15.2200   20.3130 N   0  0  0  0  0  0  0  0  0  0  0  0
  -24.6700  -15.8770   20.3930 H   0  0  0  0  0  0  0  0  0  0  0  0
  -26.2880  -15.6440   19.9610 H   0  0  0  0  0  0  0  0  0  0  0  0
  1  2  1  0
  3  6  1  0
  4  3  2  0
  4  5  1  0
  5  1  2  0
  6 13  1  0
  6  2  2  0
  7 12  2  0
  7  3  1  0
  8  4  1  0
  9  7  1  0
 10  8  1  0
 11 10  1  0
 11  9  1  0
 13 14  1  0
 15 16  1  0
 15 13  1  0
 17 16  1  0
 18 29  2  0
 19 17  1  0
 19 24  1  0
 20 28  1  0
 20 30  1  0
 21 27  1  0
 21 23  1  0
 22 28  1  0
 23 22  1  0
 24 23  2  0
 25 26  1  0
 25 19  2  0
 26 21  2  0
 27 20  1  0
 28 18  1  0
 30 32  2  0
 31 30  1  0
 33 31  1  0
 34 43  2  0
 34 39  1  0
 35 31  1  0
 35 39  1  0
 36 35  1  0
 37 38  1  0
 37 36  1  0
 38 34  1  0
 39 40  2  0
 40 41  1  0
 42 41  2  0
 43 42  1  0
 44 18  1  0
 44 45  1  0
 44 54  1  0
 45 48  1  0
 46 50  1  0
 46 45  1  0
 47 46  2  0
 50 49  1  0
 52 50  1  0
 52 53  1  0
 52 51  1  0
 54 57  1  1
 54 55  1  0
 56 54  1  0
 58  5  1  0
 58 59  1  0
 60 68  1  0
 61 66  1  0
 62 63  1  0
 62 61  1  0
 64 63  1  0
 64 73  1  0
 64 65  1  0
 66 60  1  0
 66 65  1  0
 67 60  2  0
 68 69  1  0
 68 59  1  0
 70 71  2  0
 71 90  1  0
 72 71  1  0
 72 75  1  0
 73 70  1  0
 73 74  1  0
 74 72  2  0
 75 76  1  0
 76 77  2  0
 78 81  1  0
 78 77  1  0
 79 78  2  0
 80 79  1  0
 80 75  2  0
 81 82  1  0
 82 83  1  0
 83 84  2  0
 85 84  1  0
 85 89  1  0
 86 85  2  0
 87 82  2  0
 87 86  1  0
 88 87  1  0
 90 91  1  0
 91 94  1  0
 91 93  1  0
 92 90  2  0
 95 96  1  0
 95 70  1  0
 97 95  1  0
M  ISO  4  16 101  17 101  60 100  68 100
M  END
>  <TORSDO>  (14) 
F 21

>  <SCORE>  (14) 
-14.021

>  <name>  (14) 
13

>  <ligand_id>  (14) 
13

>  <original_smiles>  (14) 
[H]c1c([H])c([H])c2c(c1[H])C([H])([H])C([H])([H])C([H])([H])C2([H])N([H])C(=O)C1([H])N(C(=O)C([H])(N([H])C(=O)C([H])(N([H])C([H])([H])[H])C([H])([H])[H])C(C([H])([H])[H])(C([H])([H])[H])C([H])([H])[H])C([H])([H])c2c([H])c(OC([H])([H])C([H])([H])N([H])c3c([H])c([H])c(C([H])([H])C([H])([H])N([H])C(=O)N4C([H])([H])C([H])([H])C([H])([H])C([H])(n5nc(-c6c([H])c([H])c(Oc7c([H])c([H])c(F)c([H])c7F)c([H])c6[H])c(C(=O)N([H])[H])c5N([H])[H])C4([H])[H])c4c3C(=O)C([H])([H])C([H])([H])C([H])([H])C4([H])[H])c([H])c([H])c2C1([H])[H]

>  <smiles>  (14) 
[H]c1c([H])c([H])c2c(c1[H])C([H])([H])C([H])([H])C([H])([H])C2([H])N([H])C(=O)C1([H])N(C(=O)C([H])(N([H])C(=O)C([H])(N([H])C([H])([H])[H])C([H])([H])[H])C(C([H])([H])[H])(C([H])([H])[H])C([H])([H])[H])C([H])([H])c2c([H])c(OC([H])([H])C([H])([H])N([H])c3c([H])c([H])c(C([H])([H])C([H])([H])N([H])C(=O)N4C([H])([H])C([H])([H])C([H])([H])C([H])(n5nc(-c6c([H])c([H])c(Oc7c([H])c([H])c(F)c([H])c7F)c([H])c6[H])c(C(=O)N([H])[H])c5N([H])[H])C4([H])[H])c4c3C(=O)C([H])([H])C([H])([H])C([H])([H])C4([H])[H])c([H])c([H])c2C1([H])[H]

$$$$
14:0:0
     RDKit          3D

 90 99  0  0  1  0  0  0  0  0999 V2000
  -29.3150  -20.6880   19.6990 C   0  0  0  0  0  0  0  0  0  0  0  0
  -29.1050  -19.8360   18.4710 C   0  0  0  0  0  2  0  0  0  0  0  0
  -28.6040  -18.4730   18.9750 C   0  0  0  0  0  2  0  0  0  0  0  0
  -31.1380  -19.4880   21.1040 C   0  0  0  0  0  2  0  0  0  0  0  0
  -31.2790  -17.9980   21.4730 C   0  0  0  0  0  2  0  0  0  0  0  0
  -29.6360  -19.7090   20.8450 C   0  0  0  0  0  3  0  0  0  0  0  0
  -29.1300  -18.2990   20.4120 C   0  0  0  0  0  3  0  0  0  0  0  0
  -30.2930  -17.2620   20.5540 C   0  0  0  0  0  3  0  0  0  0  0  0
  -29.1820  -21.9740   19.6780 N   0  0  0  0  0  0  0  0  0  0  0  0
  -29.8700  -15.8180   21.0390 C   0  0  0  0  0  2  0  0  0  0  0  0
  -30.6450  -14.5800   20.4720 C   0  0  0  0  0  0  0  0  0  0  0  0
  -30.4070  -12.3910   19.3240 C   0  0  0  0  0  2  0  0  0  0  0  0
  -29.4690  -12.5780   18.1110 C   0  0  0  0  0  2  0  0  0  0  0  0
  -27.9920  -12.4250   18.5270 C   0  0  0  0  0  2  0  0  0  0  0  0
  -27.6380  -13.2670   19.7810 C   0  0  0  0  0  3  0  0  0  0  0  0
  -28.6870  -13.0580   20.8980 C   0  0  0  0  0  2  0  0  0  0  0  0
  -30.0110  -13.3760   20.3450 N   0  0  0  0  0  0  0  0  0  0  0  0
  -31.7880  -14.7490   20.0340 O   0  0  0  0  0  0  0  0  0  0  0  0
  -25.2360  -13.8810   20.4690 C   0  0  0  0  0  0  0  0  0  0  0  0
  -24.1630  -13.1130   20.8320 C   0  0  0  0  0  0  0  0  0  0  0  0
  -24.6220  -11.7600   20.8140 C   0  0  0  0  0  0  0  0  0  0  0  0
  -26.2820  -12.9970   20.2520 N   0  0  0  0  0  0  0  0  0  0  0  0
  -25.9160  -11.7170   20.5190 N   0  0  0  0  0  0  0  0  0  0  0  0
  -23.8930  -10.5000   21.0030 C   0  0  0  0  0  0  0  0  0  0  0  0
  -24.3100   -9.5420   21.9540 C   0  0  0  0  0  3  0  0  0  0  0  0
  -23.5810   -8.3460   22.1300 C   0  0  0  0  0  3  0  0  0  0  0  0
  -22.4230   -8.1000   21.3560 C   0  0  0  0  0  0  0  0  0  0  0  0
  -22.0260   -9.0470   20.3950 C   0  0  0  0  0  3  0  0  0  0  0  0
  -22.7540  -10.2350   20.2170 C   0  0  0  0  0  3  0  0  0  0  0  0
  -21.6690   -6.9550   21.4420 O   0  0  0  0  0  0  0  0  0  0  0  0
  -21.5920   -6.2270   22.6020 C   0  0  0  0  0  0  0  0  0  0  0  0
  -21.1270   -6.7950   23.8080 C   0  0  0  0  0  3  0  0  0  0  0  0
  -20.9990   -5.9950   24.9610 C   0  0  0  0  0  3  0  0  0  0  0  0
  -21.3260   -4.6260   24.9080 C   0  0  0  0  0  0  0  0  0  0  0  0
  -21.7840   -4.0570   23.7060 C   0  0  0  0  0  3  0  0  0  0  0  0
  -21.9130   -4.8560   22.5560 C   0  0  0  0  0  0  0  0  0  0  0  0
  -22.3350   -4.2990   21.3950 F   0  0  0  0  0  0  0  0  0  0  0  0
  -21.1950   -3.8540   26.0110 F   0  0  0  0  0  0  0  0  0  0  0  0
  -22.7630  -13.5930   21.0870 C   0  0  0  0  0  0  0  0  0  0  0  0
  -22.0240  -12.8990   21.9440 N   0  0  0  0  0  0  0  0  0  0  0  0
  -22.3330  -14.6180   20.5590 O   0  0  0  0  0  0  0  0  0  0  0  0
  -22.3840  -12.0700   22.3940 H   0  0  0  0  0  0  0  0  0  0  0  0
  -21.0840  -13.2020   22.1560 H   0  0  0  0  0  0  0  0  0  0  0  0
  -25.4040  -15.2510   20.2860 N   0  0  0  0  0  0  0  0  0  0  0  0
  -24.6370  -15.9060   20.3840 H   0  0  0  0  0  0  0  0  0  0  0  0
  -26.2600  -15.6880   19.9700 H   0  0  0  0  0  0  0  0  0  0  0  0
  -29.2840  -22.8070   20.8790 C   0  0  0  0  0  2  0  0  0  0  0  0
  -29.4570  -24.3420   20.5730 C   0  0  0  0  0  2  0  0  0  0  0  0
  -28.1920  -25.1650   20.1670 C   0  0  0  0  0  2  0  0  0  0  0  0
  -28.3650  -26.6140   20.2060 O   0  0  0  0  0  0  0  0  0  0  0  0
  -24.5970  -31.9010   23.2430 C   0  0  0  0  0  0  0  0  0  0  0  0
  -27.2130  -27.3960   20.1700 C   0  0  0  0  0  0  0  0  0  0  0  0
  -23.3840  -30.4940   21.6150 C   0  0  0  0  0  3  0  0  0  0  0  0
  -24.8300  -28.9520   20.1820 C   0  0  0  0  0  0  0  0  0  0  0  0
  -25.9180  -30.8300   21.4180 C   0  0  0  0  0  2  0  0  0  0  0  0
  -25.9960  -29.4580   20.7680 C   0  0  0  0  0  0  0  0  0  0  0  0
  -27.1900  -28.6920   20.7530 C   0  0  0  0  0  3  0  0  0  0  0  0
  -26.0230  -26.9220   19.5710 C   0  0  0  0  0  3  0  0  0  0  0  0
  -24.8410  -27.6850   19.5780 C   0  0  0  0  0  3  0  0  0  0  0  0
  -23.5890  -29.8160   20.2350 C   0  0  0  0  0  2  0  0  0  0  0  0
  -24.6530  -31.0870   22.1510 N   0  0  0  0  0  0  0  0  0  0  0  0
  -23.5120  -32.2040   23.7590 O   0  0  0  0  0  0  0  0  0  0  0  0
  -22.7320  -29.4750   22.5770 C   0  0  0  0  0  0  0  0  0  0  0  0
  -21.4060  -29.2920   22.4510 N   0  0  0  0  0  0  0  0  0  0  0  0
  -23.4150  -28.8490   23.3920 O   0  0  0  0  0  0  0  0  0  0  0  0
  -20.9160  -29.8460   21.7630 H   0  0  0  0  0  0  0  0  0  0  0  0
  -18.0310  -28.0990   22.9510 C   0  0  0  0  0  0  0  0  0  0  0  0
  -20.5900  -28.3550   23.2230 C   0  0  0  0  0  3  0  0  0  0  0  0
  -20.6910  -26.9240   22.6460 C   0  0  0  0  0  2  0  0  0  0  0  0
  -19.5890  -26.6020   21.6320 C   0  0  0  0  0  2  0  0  0  0  0  0
  -18.2060  -26.7490   22.2760 C   0  0  0  0  0  2  0  0  0  0  0  0
  -19.1510  -28.8590   23.3820 C   0  0  0  0  0  0  0  0  0  0  0  0
  -18.9340  -30.1230   23.9730 C   0  0  0  0  0  3  0  0  0  0  0  0
  -17.6300  -30.6260   24.1400 C   0  0  0  0  0  3  0  0  0  0  0  0
  -16.5240  -29.8620   23.7280 C   0  0  0  0  0  3  0  0  0  0  0  0
  -16.7260  -28.6010   23.1380 C   0  0  0  0  0  3  0  0  0  0  0  0
  -25.8870  -32.5190   23.8690 C   0  0  0  0  0  3  0  0  0  0  0  0
  -26.4040  -31.7410   25.1420 C   0  0  1  0  0  0  0  0  0  0  0  0
  -25.3120  -31.5030   26.2100 C   0  0  0  0  0  1  0  0  0  0  0  0
  -26.9840  -30.3650   24.7430 C   0  0  0  0  0  1  0  0  0  0  0  0
  -27.5580  -32.5300   25.8050 C   0  0  0  0  0  1  0  0  0  0  0  0
  -25.5860  -33.9170   24.2070 N   0  0  0  0  0  0  0  0  0  0  0  0
  -25.9080  -34.9680   23.4440 C   0  0  0  0  0  0  0  0  0  0  0  0
  -26.5640  -34.8650   22.4030 O   0  0  0  0  0  0  0  0  0  0  0  0
  -25.0020  -34.0710   25.0160 H   0  0  0  0  0  0  0  0  0  0  0  0
  -24.1740  -36.7580   23.1110 C   0  0  0  0  0  1  0  0  0  0  0  0
  -25.4260  -36.3560   23.9070 C   0  0  0  0  0  3  0  0  0  0  0  0
  -27.5680  -37.2410   24.7140 C   0  0  0  0  0  1  0  0  0  0  0  0
  -26.4570  -37.4090   23.7810 N   0  0  0  0  0  0  0  0  0  0  0  0
  -26.0530  -38.3300   23.9320 H   0  0  0  0  0  0  0  0  0  0  0  0
  1  6  1  0
  2  3  1  0
  2  1  1  0
  4  5  1  0
  6  4  1  0
  7  3  1  0
  7  8  1  0
  7  6  1  0
  8 10  1  0
  8  5  1  0
  9  1  2  0
  9 47  1  0
 11 10  1  0
 12 17  1  0
 13 14  1  0
 13 12  1  0
 15 14  1  0
 15 22  1  0
 15 16  1  0
 17 11  1  0
 17 16  1  0
 18 11  2  0
 19 20  2  0
 20 39  1  0
 21 20  1  0
 21 24  1  0
 22 19  1  0
 22 23  1  0
 23 21  2  0
 24 25  1  0
 25 26  2  0
 27 30  1  0
 27 26  1  0
 28 27  2  0
 29 28  1  0
 29 24  2  0
 30 31  1  0
 31 32  1  0
 32 33  2  0
 34 33  1  0
 34 38  1  0
 35 34  2  0
 36 31  2  0
 36 35  1  0
 37 36  1  0
 39 40  1  0
 40 43  1  0
 40 42  1  0
 41 39  2  0
 44 45  1  0
 44 19  1  0
 46 44  1  0
 48 47  1  0
 49 50  1  0
 49 48  1  0
 51 62  2  0
 52 50  1  0
 52 57  1  0
 53 61  1  0
 53 63  1  0
 54 60  1  0
 54 56  1  0
 55 61  1  0
 56 55  1  0
 57 56  2  0
 58 59  1  0
 58 52  2  0
 59 54  2  0
 60 53  1  0
 61 51  1  0
 63 65  2  0
 64 63  1  0
 66 64  1  0
 67 76  2  0
 67 72  1  0
 68 64  1  0
 68 72  1  0
 69 68  1  0
 70 71  1  0
 70 69  1  0
 71 67  1  0
 72 73  2  0
 73 74  1  0
 75 74  2  0
 76 75  1  0
 77 51  1  0
 77 82  1  0
 77 78  1  0
 78 81  1  1
 78 79  1  0
 80 78  1  0
 82 85  1  0
 83 87  1  0
 83 82  1  0
 84 83  2  0
 87 86  1  0
 89 87  1  0
 89 90  1  0
 89 88  1  0
M  ISO  4  10 100  11 100  49 101  50 101
M  END
>  <TORSDO>  (15) 
F 20

>  <SCORE>  (15) 
-14.078

>  <name>  (15) 
14

>  <ligand_id>  (15) 
14

>  <original_smiles>  (15) 
[H]c1c([H])c([H])c2c(c1[H])C([H])([H])C([H])([H])C([H])([H])C2([H])N([H])C(=O)C1([H])N(C(=O)C([H])(N([H])C(=O)C([H])(N([H])C([H])([H])[H])C([H])([H])[H])C(C([H])([H])[H])(C([H])([H])[H])C([H])([H])[H])C([H])([H])c2c([H])c(OC([H])([H])C([H])([H])C([H])([H])N=C3C([H])([H])C([H])([H])C4([H])C3([H])C([H])([H])C([H])([H])C4([H])C([H])([H])C(=O)N3C([H])([H])C([H])([H])C([H])([H])C([H])(n4nc(-c5c([H])c([H])c(Oc6c([H])c([H])c(F)c([H])c6F)c([H])c5[H])c(C(=O)N([H])[H])c4N([H])[H])C3([H])[H])c([H])c([H])c2C1([H])[H]

>  <smiles>  (15) 
[H]c1c([H])c([H])c2c(c1[H])C([H])([H])C([H])([H])C([H])([H])C2([H])N([H])C(=O)C1([H])N(C(=O)C([H])(N([H])C(=O)C([H])(N([H])C([H])([H])[H])C([H])([H])[H])C(C([H])([H])[H])(C([H])([H])[H])C([H])([H])[H])C([H])([H])c2c([H])c(OC([H])([H])C([H])([H])C([H])([H])N=C3C([H])([H])C([H])([H])C4([H])C3([H])C([H])([H])C([H])([H])C4([H])C([H])([H])C(=O)N3C([H])([H])C([H])([H])C([H])([H])C([H])(n4nc(-c5c([H])c([H])c(Oc6c([H])c([H])c(F)c([H])c6F)c([H])c5[H])c(C(=O)N([H])[H])c4N([H])[H])C3([H])[H])c([H])c([H])c2C1([H])[H]

$$$$
15:0:0
     RDKit          3D

 89 97  0  0  1  0  0  0  0  0999 V2000
  -29.0260  -23.1000   21.8230 C   0  0  0  0  0  2  0  0  0  0  0  0
  -28.4600  -23.3390   19.4300 C   0  0  0  0  0  2  0  0  0  0  0  0
  -29.7860  -21.7750   21.5150 C   0  0  0  0  0  2  0  0  0  0  0  0
  -29.2320  -22.0140   19.1470 C   0  0  0  0  0  2  0  0  0  0  0  0
  -29.0090  -24.1160   20.6480 C   0  0  0  0  0  3  0  0  0  0  0  0
  -29.2700  -21.0690   20.3070 N   0  0  1  0  0  4  0  0  0  0  0  0
  -28.3120  -20.8080   20.4910 H   0  0  0  0  0  0  0  0  0  0  0  0
  -28.1910  -25.4080   21.0140 C   0  0  0  0  0  2  0  0  0  0  0  0
  -28.3630  -26.5960   20.1940 O   0  0  0  0  0  0  0  0  0  0  0  0
  -24.6070  -31.8960   23.2270 C   0  0  0  0  0  0  0  0  0  0  0  0
  -27.2450  -27.4150   20.1610 C   0  0  0  0  0  0  0  0  0  0  0  0
  -23.4080  -30.4950   21.5820 C   0  0  0  0  0  3  0  0  0  0  0  0
  -24.8670  -28.9600   20.1520 C   0  0  0  0  0  0  0  0  0  0  0  0
  -25.9410  -30.8370   21.4040 C   0  0  0  0  0  2  0  0  0  0  0  0
  -26.0280  -29.4690   20.7520 C   0  0  0  0  0  0  0  0  0  0  0  0
  -27.2240  -28.7060   20.7480 C   0  0  0  0  0  3  0  0  0  0  0  0
  -26.0730  -26.9380   19.5400 C   0  0  0  0  0  3  0  0  0  0  0  0
  -24.8870  -27.6970   19.5390 C   0  0  0  0  0  3  0  0  0  0  0  0
  -23.6240  -29.8220   20.2000 C   0  0  0  0  0  2  0  0  0  0  0  0
  -24.6710  -31.0870   22.1310 N   0  0  0  0  0  0  0  0  0  0  0  0
  -23.5180  -32.1930   23.7370 O   0  0  0  0  0  0  0  0  0  0  0  0
  -22.7460  -29.4730   22.5350 C   0  0  0  0  0  0  0  0  0  0  0  0
  -21.4230  -29.2870   22.3930 N   0  0  0  0  0  0  0  0  0  0  0  0
  -23.4220  -28.8490   23.3580 O   0  0  0  0  0  0  0  0  0  0  0  0
  -20.9390  -29.8430   21.7020 H   0  0  0  0  0  0  0  0  0  0  0  0
  -18.0490  -28.0700   22.8440 C   0  0  0  0  0  0  0  0  0  0  0  0
  -20.6010  -28.3450   23.1530 C   0  0  0  0  0  3  0  0  0  0  0  0
  -20.7210  -26.9130   22.5810 C   0  0  0  0  0  2  0  0  0  0  0  0
  -19.6370  -26.5830   21.5510 C   0  0  0  0  0  2  0  0  0  0  0  0
  -18.2440  -26.7200   22.1730 C   0  0  0  0  0  2  0  0  0  0  0  0
  -19.1560  -28.8390   23.2890 C   0  0  0  0  0  0  0  0  0  0  0  0
  -18.9200  -30.1020   23.8750 C   0  0  0  0  0  3  0  0  0  0  0  0
  -17.6100  -30.5950   24.0200 C   0  0  0  0  0  3  0  0  0  0  0  0
  -16.5170  -29.8230   23.5920 C   0  0  0  0  0  3  0  0  0  0  0  0
  -16.7380  -28.5620   23.0100 C   0  0  0  0  0  3  0  0  0  0  0  0
  -25.8910  -32.5120   23.8670 C   0  0  0  0  0  3  0  0  0  0  0  0
  -25.5870  -33.9090   24.2040 N   0  0  0  0  0  0  0  0  0  0  0  0
  -25.9210  -34.9630   23.4480 C   0  0  0  0  0  0  0  0  0  0  0  0
  -26.5900  -34.8610   22.4150 O   0  0  0  0  0  0  0  0  0  0  0  0
  -24.9940  -34.0630   25.0060 H   0  0  0  0  0  0  0  0  0  0  0  0
  -24.1910  -36.7550   23.1010 C   0  0  0  0  0  1  0  0  0  0  0  0
  -25.4360  -36.3500   23.9080 C   0  0  0  0  0  3  0  0  0  0  0  0
  -27.5740  -37.2310   24.7330 C   0  0  0  0  0  1  0  0  0  0  0  0
  -26.4680  -37.4030   23.7930 N   0  0  0  0  0  0  0  0  0  0  0  0
  -26.0640  -38.3230   23.9450 H   0  0  0  0  0  0  0  0  0  0  0  0
  -26.3960  -31.7320   25.1420 C   0  0  1  0  0  0  0  0  0  0  0  0
  -25.2950  -31.4910   26.2000 C   0  0  0  0  0  1  0  0  0  0  0  0
  -26.9770  -30.3550   24.7460 C   0  0  0  0  0  1  0  0  0  0  0  0
  -27.5470  -32.5170   25.8150 C   0  0  0  0  0  1  0  0  0  0  0  0
  -30.0100  -19.7910   19.9870 C   0  0  0  0  0  2  0  0  0  0  0  0
  -29.5890  -18.5000   20.7760 C   0  0  0  0  0  2  0  0  0  0  0  0
  -30.3690  -17.2000   20.3560 C   0  0  0  0  0  3  0  0  0  0  0  0
  -29.9220  -15.8360   21.0030 C   0  0  0  0  0  3  0  0  0  0  0  0
  -30.6330  -14.5640   20.4270 C   0  0  0  0  0  0  0  0  0  0  0  0
  -30.3490  -12.3790   19.2940 C   0  0  0  0  0  2  0  0  0  0  0  0
  -29.4080  -12.5750   18.0870 C   0  0  0  0  0  2  0  0  0  0  0  0
  -27.9330  -12.4360   18.5150 C   0  0  0  0  0  2  0  0  0  0  0  0
  -27.5970  -13.2770   19.7750 C   0  0  0  0  0  3  0  0  0  0  0  0
  -28.6540  -13.0730   20.8840 C   0  0  0  0  0  2  0  0  0  0  0  0
  -29.9740  -13.3730   20.3140 N   0  0  0  0  0  0  0  0  0  0  0  0
  -31.7700  -14.7070   19.9670 O   0  0  0  0  0  0  0  0  0  0  0  0
  -25.2020  -13.8940   20.4820 C   0  0  0  0  0  0  0  0  0  0  0  0
  -24.1300  -13.1270   20.8530 C   0  0  0  0  0  0  0  0  0  0  0  0
  -24.5870  -11.7720   20.8310 C   0  0  0  0  0  0  0  0  0  0  0  0
  -26.2440  -13.0070   20.2570 N   0  0  0  0  0  0  0  0  0  0  0  0
  -25.8780  -11.7280   20.5250 N   0  0  0  0  0  0  0  0  0  0  0  0
  -23.8570  -10.5140   21.0270 C   0  0  0  0  0  0  0  0  0  0  0  0
  -24.2900   -9.5450   21.9590 C   0  0  0  0  0  3  0  0  0  0  0  0
  -23.5590   -8.3510   22.1440 C   0  0  0  0  0  3  0  0  0  0  0  0
  -22.3820   -8.1170   21.3940 C   0  0  0  0  0  0  0  0  0  0  0  0
  -21.9680   -9.0740   20.4510 C   0  0  0  0  0  3  0  0  0  0  0  0
  -22.6980  -10.2600   20.2660 C   0  0  0  0  0  3  0  0  0  0  0  0
  -21.6230   -6.9760   21.4880 O   0  0  0  0  0  0  0  0  0  0  0  0
  -21.5860   -6.2280   22.6380 C   0  0  0  0  0  0  0  0  0  0  0  0
  -21.1860   -6.7820   23.8730 C   0  0  0  0  0  3  0  0  0  0  0  0
  -21.0940   -5.9630   25.0160 C   0  0  0  0  0  3  0  0  0  0  0  0
  -21.3930   -4.5900   24.9230 C   0  0  0  0  0  0  0  0  0  0  0  0
  -21.7870   -4.0360   23.6940 C   0  0  0  0  0  3  0  0  0  0  0  0
  -21.8800   -4.8520   22.5530 C   0  0  0  0  0  0  0  0  0  0  0  0
  -22.2400   -4.3100   21.3650 F   0  0  0  0  0  0  0  0  0  0  0  0
  -21.2970   -3.8000   26.0190 F   0  0  0  0  0  0  0  0  0  0  0  0
  -22.7340  -13.6100   21.1200 C   0  0  0  0  0  0  0  0  0  0  0  0
  -22.0040  -12.9200   21.9890 N   0  0  0  0  0  0  0  0  0  0  0  0
  -22.3000  -14.6330   20.5930 O   0  0  0  0  0  0  0  0  0  0  0  0
  -22.3680  -12.0910   22.4340 H   0  0  0  0  0  0  0  0  0  0  0  0
  -21.0670  -13.2260   22.2120 H   0  0  0  0  0  0  0  0  0  0  0  0
  -25.3720  -15.2630   20.2970 N   0  0  0  0  0  0  0  0  0  0  0  0
  -24.6110  -15.9240   20.4020 H   0  0  0  0  0  0  0  0  0  0  0  0
  -26.2280  -15.6940   19.9730 H   0  0  0  0  0  0  0  0  0  0  0  0
  2  5  1  0
  3  1  1  0
  4  2  1  0
  4  6  1  0
  5  8  1  0
  5  1  1  0
  6  7  1  1
  6  3  1  0
  9  8  1  0
 10 21  2  0
 11  9  1  0
 11 16  1  0
 12 20  1  0
 12 22  1  0
 13 19  1  0
 13 15  1  0
 14 20  1  0
 15 14  1  0
 16 15  2  0
 17 11  2  0
 18 17  1  0
 18 13  2  0
 19 12  1  0
 20 10  1  0
 22 24  2  0
 23 22  1  0
 25 23  1  0
 26 35  2  0
 26 31  1  0
 27 23  1  0
 27 31  1  0
 28 27  1  0
 29 30  1  0
 29 28  1  0
 30 26  1  0
 31 32  2  0
 32 33  1  0
 34 33  2  0
 35 34  1  0
 36 10  1  0
 36 37  1  0
 36 46  1  0
 37 40  1  0
 38 42  1  0
 38 37  1  0
 39 38  2  0
 42 41  1  0
 44 42  1  0
 44 45  1  0
 44 43  1  0
 46 49  1  1
 46 47  1  0
 48 46  1  0
 50  6  1  0
 50 51  1  0
 52 51  1  0
 52 53  2  0
 54 53  1  0
 55 60  1  0
 56 57  1  0
 56 55  1  0
 58 57  1  0
 58 65  1  0
 58 59  1  0
 60 54  1  0
 60 59  1  0
 61 54  2  0
 62 63  2  0
 63 82  1  0
 64 63  1  0
 64 67  1  0
 65 62  1  0
 65 66  1  0
 66 64  2  0
 67 68  1  0
 68 69  2  0
 70 73  1  0
 70 69  1  0
 71 70  2  0
 72 71  1  0
 72 67  2  0
 73 74  1  0
 74 75  1  0
 75 76  2  0
 77 76  1  0
 77 81  1  0
 78 77  2  0
 79 74  2  0
 79 78  1  0
 80 79  1  0
 82 83  1  0
 83 86  1  0
 83 85  1  0
 84 82  2  0
 87 88  1  0
 87 62  1  0
 89 87  1  0
M  ISO  4   8 101   9 101  53 100  54 100
M  END
>  <TORSDO>  (16) 
F 21

>  <SCORE>  (16) 
-13.442

>  <name>  (16) 
15

>  <ligand_id>  (16) 
15

>  <original_smiles>  (16) 
[H]c1c([H])c([H])c2c(c1[H])C([H])([H])C([H])([H])C([H])([H])C2([H])N([H])C(=O)C1([H])N(C(=O)C([H])(N([H])C(=O)C([H])(N([H])C([H])([H])[H])C([H])([H])[H])C(C([H])([H])[H])(C([H])([H])[H])C([H])([H])[H])C([H])([H])c2c([H])c(OC([H])([H])C3([H])C([H])([H])C([H])([H])[N+]([H])(C([H])([H])C([H])([H])C([H])([H])C([H])([H])C(=O)N4C([H])([H])C([H])([H])C([H])([H])C([H])(n5nc(-c6c([H])c([H])c(Oc7c([H])c([H])c(F)c([H])c7F)c([H])c6[H])c(C(=O)N([H])[H])c5N([H])[H])C4([H])[H])C([H])([H])C3([H])[H])c([H])c([H])c2C1([H])[H]

>  <smiles>  (16) 
[H]c1c([H])c([H])c2c(c1[H])C([H])([H])C([H])([H])C([H])([H])C2([H])N([H])C(=O)C1([H])N(C(=O)C([H])(N([H])C(=O)C([H])(N([H])C([H])([H])[H])C([H])([H])[H])C(C([H])([H])[H])(C([H])([H])[H])C([H])([H])[H])C([H])([H])c2c([H])c(OC([H])([H])C3([H])C([H])([H])C([H])([H])[N+]([H])(C([H])([H])C([H])([H])C([H])([H])C([H])([H])C(=O)N4C([H])([H])C([H])([H])C([H])([H])C([H])(n5nc(-c6c([H])c([H])c(Oc7c([H])c([H])c(F)c([H])c7F)c([H])c6[H])c(C(=O)N([H])[H])c5N([H])[H])C4([H])[H])C([H])([H])C3([H])[H])c([H])c([H])c2C1([H])[H]

$$$$
16:0:0
     RDKit          3D

 94103  0  0  1  0  0  0  0  0999 V2000
  -30.7090  -14.5360   20.4660 C   0  0  0  0  0  0  0  0  0  0  0  0
  -30.4160  -12.3740   19.3320 C   0  0  0  0  0  2  0  0  0  0  0  0
  -29.4810  -12.5840   18.1230 C   0  0  0  0  0  2  0  0  0  0  0  0
  -28.0030  -12.4620   18.5470 C   0  0  0  0  0  2  0  0  0  0  0  0
  -27.6600  -13.2910   19.8150 C   0  0  0  0  0  3  0  0  0  0  0  0
  -28.7140  -13.0740   20.9250 C   0  0  0  0  0  2  0  0  0  0  0  0
  -30.0390  -13.3590   20.3540 N   0  0  0  0  0  0  0  0  0  0  0  0
  -31.8850  -14.6770   20.1120 O   0  0  0  0  0  0  0  0  0  0  0  0
  -28.5240  -19.9040   19.2450 C   0  0  0  0  0  3  0  0  0  0  0  0
  -28.9740  -21.1970   19.5650 C   0  0  0  0  0  3  0  0  0  0  0  0
  -30.3680  -20.2490   21.3180 C   0  0  0  0  0  3  0  0  0  0  0  0
  -29.0100  -18.7690   19.9330 C   0  0  0  0  0  0  0  0  0  0  0  0
  -29.9420  -18.9350   20.9930 C   0  0  0  0  0  0  0  0  0  0  0  0
  -29.9070  -21.3830   20.6050 C   0  0  0  0  0  0  0  0  0  0  0  0
  -28.5300  -17.4070   19.4590 C   0  0  0  0  0  2  0  0  0  0  0  0
  -30.5710  -17.7690   21.7750 C   0  0  0  0  0  2  0  0  0  0  0  0
  -29.6620  -16.3780   19.3340 C   0  0  0  0  0  2  0  0  0  0  0  0
  -29.8250  -16.4090   21.8160 C   0  0  0  0  0  2  0  0  0  0  0  0
  -29.9100  -15.6260   20.5710 N   0  0  0  0  0  0  0  0  0  0  0  0
  -25.2590  -13.9010   20.5050 C   0  0  0  0  0  0  0  0  0  0  0  0
  -24.1880  -13.1300   20.8660 C   0  0  0  0  0  0  0  0  0  0  0  0
  -24.6500  -11.7790   20.8430 C   0  0  0  0  0  0  0  0  0  0  0  0
  -26.3060  -13.0190   20.2870 N   0  0  0  0  0  0  0  0  0  0  0  0
  -25.9430  -11.7380   20.5470 N   0  0  0  0  0  0  0  0  0  0  0  0
  -23.9230  -10.5160   21.0290 C   0  0  0  0  0  0  0  0  0  0  0  0
  -24.3450   -9.5560   21.9740 C   0  0  0  0  0  3  0  0  0  0  0  0
  -23.6200   -8.3570   22.1460 C   0  0  0  0  0  3  0  0  0  0  0  0
  -22.4590   -8.1110   21.3740 C   0  0  0  0  0  0  0  0  0  0  0  0
  -22.0580   -9.0620   20.4190 C   0  0  0  0  0  3  0  0  0  0  0  0
  -22.7840  -10.2520   20.2450 C   0  0  0  0  0  3  0  0  0  0  0  0
  -21.7080   -6.9640   21.4570 O   0  0  0  0  0  0  0  0  0  0  0  0
  -21.6300   -6.2360   22.6170 C   0  0  0  0  0  0  0  0  0  0  0  0
  -21.1630   -6.8040   23.8220 C   0  0  0  0  0  3  0  0  0  0  0  0
  -21.0330   -6.0010   24.9730 C   0  0  0  0  0  3  0  0  0  0  0  0
  -21.3590   -4.6330   24.9200 C   0  0  0  0  0  0  0  0  0  0  0  0
  -21.8200   -4.0660   23.7190 C   0  0  0  0  0  3  0  0  0  0  0  0
  -21.9520   -4.8650   22.5710 C   0  0  0  0  0  0  0  0  0  0  0  0
  -22.3760   -4.3090   21.4100 F   0  0  0  0  0  0  0  0  0  0  0  0
  -21.2270   -3.8610   26.0230 F   0  0  0  0  0  0  0  0  0  0  0  0
  -22.7880  -13.6090   21.1230 C   0  0  0  0  0  0  0  0  0  0  0  0
  -22.0510  -12.9140   21.9820 N   0  0  0  0  0  0  0  0  0  0  0  0
  -22.3560  -14.6330   20.5970 O   0  0  0  0  0  0  0  0  0  0  0  0
  -22.4130  -12.0870   22.4330 H   0  0  0  0  0  0  0  0  0  0  0  0
  -21.1110  -13.2180   22.1960 H   0  0  0  0  0  0  0  0  0  0  0  0
  -25.4250  -15.2710   20.3270 N   0  0  0  0  0  0  0  0  0  0  0  0
  -24.6600  -15.9280   20.4310 H   0  0  0  0  0  0  0  0  0  0  0  0
  -26.2850  -15.7040   20.0220 H   0  0  0  0  0  0  0  0  0  0  0  0
  -30.4780  -22.7760   20.8890 C   0  0  0  0  0  2  0  0  0  0  0  0
  -29.4530  -23.8260   21.1130 N   0  0  0  0  0  4  0  0  0  0  0  0
  -28.8640  -23.5270   21.8740 H   0  0  0  0  0  0  0  0  0  0  0  0
  -28.8790  -23.8940   20.2880 H   0  0  0  0  0  0  0  0  0  0  0  0
  -30.0250  -25.1690   21.4130 C   0  0  0  0  0  2  0  0  0  0  0  0
  -28.9690  -26.2910   21.5420 C   0  0  0  0  0  2  0  0  0  0  0  0
  -28.5280  -26.7240   20.2540 O   0  0  0  0  0  0  0  0  0  0  0  0
  -24.6470  -31.9180   23.2710 C   0  0  0  0  0  0  0  0  0  0  0  0
  -27.3820  -27.4850   20.2670 C   0  0  0  0  0  0  0  0  0  0  0  0
  -23.4790  -30.4880   21.6250 C   0  0  0  0  0  3  0  0  0  0  0  0
  -24.9710  -28.9550   20.2320 C   0  0  0  0  0  0  0  0  0  0  0  0
  -26.0020  -30.8700   21.4650 C   0  0  0  0  0  2  0  0  0  0  0  0
  -26.1110  -29.4950   20.8410 C   0  0  0  0  0  0  0  0  0  0  0  0
  -27.3200  -28.7640   20.8660 C   0  0  0  0  0  3  0  0  0  0  0  0
  -26.2340  -26.9610   19.6410 C   0  0  0  0  0  3  0  0  0  0  0  0
  -25.0250  -27.6850   19.6300 C   0  0  0  0  0  3  0  0  0  0  0  0
  -23.7160  -29.7990   20.2530 C   0  0  0  0  0  2  0  0  0  0  0  0
  -24.7270  -31.1040   22.1810 N   0  0  0  0  0  0  0  0  0  0  0  0
  -23.5520  -32.2050   23.7730 O   0  0  0  0  0  0  0  0  0  0  0  0
  -22.8230  -29.4660   22.5830 C   0  0  0  0  0  0  0  0  0  0  0  0
  -21.5000  -29.2830   22.4480 N   0  0  0  0  0  0  0  0  0  0  0  0
  -23.5040  -28.8410   23.4010 O   0  0  0  0  0  0  0  0  0  0  0  0
  -21.0130  -29.8400   21.7600 H   0  0  0  0  0  0  0  0  0  0  0  0
  -18.1220  -28.0920   22.9280 C   0  0  0  0  0  0  0  0  0  0  0  0
  -20.6790  -28.3440   23.2120 C   0  0  0  0  0  3  0  0  0  0  0  0
  -20.7810  -26.9140   22.6310 C   0  0  0  0  0  2  0  0  0  0  0  0
  -19.6820  -26.5980   21.6100 C   0  0  0  0  0  2  0  0  0  0  0  0
  -18.2980  -26.7440   22.2500 C   0  0  0  0  0  2  0  0  0  0  0  0
  -19.2410  -28.8500   23.3660 C   0  0  0  0  0  0  0  0  0  0  0  0
  -19.0230  -30.1120   23.9590 C   0  0  0  0  0  3  0  0  0  0  0  0
  -17.7190  -30.6170   24.1210 C   0  0  0  0  0  3  0  0  0  0  0  0
  -16.6140  -29.8570   23.6990 C   0  0  0  0  0  3  0  0  0  0  0  0
  -16.8170  -28.5960   23.1100 C   0  0  0  0  0  3  0  0  0  0  0  0
  -25.9210  -32.5540   23.9140 C   0  0  0  0  0  3  0  0  0  0  0  0
  -26.4270  -31.7870   25.1970 C   0  0  1  0  0  0  0  0  0  0  0  0
  -25.3220  -31.5440   26.2500 C   0  0  0  0  0  1  0  0  0  0  0  0
  -27.0260  -30.4140   24.8140 C   0  0  0  0  0  1  0  0  0  0  0  0
  -27.5640  -32.5920   25.8730 C   0  0  0  0  0  1  0  0  0  0  0  0
  -25.6000  -33.9500   24.2360 N   0  0  0  0  0  0  0  0  0  0  0  0
  -25.9150  -34.9970   23.4620 C   0  0  0  0  0  0  0  0  0  0  0  0
  -26.5780  -34.8910   22.4270 O   0  0  0  0  0  0  0  0  0  0  0  0
  -25.0100  -34.1060   25.0380 H   0  0  0  0  0  0  0  0  0  0  0  0
  -24.1520  -36.7550   23.1100 C   0  0  0  0  0  1  0  0  0  0  0  0
  -25.4120  -36.3830   23.9080 C   0  0  0  0  0  3  0  0  0  0  0  0
  -27.5430  -37.3130   24.6950 C   0  0  0  0  0  1  0  0  0  0  0  0
  -26.4260  -37.4500   23.7630 N   0  0  0  0  0  0  0  0  0  0  0  0
  -26.0080  -38.3670   23.9010 H   0  0  0  0  0  0  0  0  0  0  0  0
  1 19  1  0
  2  7  1  0
  3  4  1  0
  3  2  1  0
  5  4  1  0
  5 23  1  0
  5  6  1  0
  7  1  1  0
  7  6  1  0
  8  1  2  0
  9 10  2  0
  9 12  1  0
 10 14  1  0
 12 13  2  0
 13 11  1  0
 13 16  1  0
 14 48  1  0
 14 11  2  0
 15 12  1  0
 16 18  1  0
 17 15  1  0
 17 19  1  0
 19 18  1  0
 20 21  2  0
 21 40  1  0
 22 21  1  0
 22 25  1  0
 23 20  1  0
 23 24  1  0
 24 22  2  0
 25 26  1  0
 26 27  2  0
 28 31  1  0
 28 27  1  0
 29 28  2  0
 30 29  1  0
 30 25  2  0
 31 32  1  0
 32 33  1  0
 33 34  2  0
 35 34  1  0
 35 39  1  0
 36 35  2  0
 37 32  2  0
 37 36  1  0
 38 37  1  0
 40 41  1  0
 41 44  1  0
 41 43  1  0
 42 40  2  0
 45 46  1  0
 45 20  1  0
 47 45  1  0
 48 49  1  0
 49 52  1  0
 49 50  1  0
 51 49  1  0
 52 53  1  0
 54 56  1  0
 54 53  1  0
 55 66  2  0
 56 61  1  0
 57 65  1  0
 57 67  1  0
 58 64  1  0
 58 60  1  0
 59 65  1  0
 60 61  2  0
 60 59  1  0
 62 56  2  0
 63 62  1  0
 63 58  2  0
 64 57  1  0
 65 55  1  0
 67 69  2  0
 68 67  1  0
 70 68  1  0
 71 80  2  0
 71 76  1  0
 72 68  1  0
 72 76  1  0
 73 72  1  0
 74 75  1  0
 74 73  1  0
 75 71  1  0
 76 77  2  0
 77 78  1  0
 79 78  2  0
 80 79  1  0
 81 55  1  0
 81 86  1  0
 81 82  1  0
 82 85  1  1
 82 83  1  0
 84 82  1  0
 86 89  1  0
 87 91  1  0
 87 86  1  0
 88 87  2  0
 91 90  1  0
 93 94  1  0
 93 91  1  0
 93 92  1  0
M  ISO  4   1 100  19 100  53 101  54 101
M  END
>  <TORSDO>  (17) 
F 19

>  <SCORE>  (17) 
-14.515

>  <name>  (17) 
16

>  <ligand_id>  (17) 
16

>  <original_smiles>  (17) 
[H]c1c([H])c([H])c2c(c1[H])C([H])([H])C([H])([H])C([H])([H])C2([H])N([H])C(=O)C1([H])N(C(=O)C([H])(N([H])C(=O)C([H])(N([H])C([H])([H])[H])C([H])([H])[H])C(C([H])([H])[H])(C([H])([H])[H])C([H])([H])[H])C([H])([H])c2c([H])c(OC([H])([H])C([H])([H])[N+]([H])([H])C([H])([H])c3c([H])c([H])c4c(c3[H])C([H])([H])C([H])([H])N(C(=O)N3C([H])([H])C([H])([H])C([H])([H])C([H])(n5nc(-c6c([H])c([H])c(Oc7c([H])c([H])c(F)c([H])c7F)c([H])c6[H])c(C(=O)N([H])[H])c5N([H])[H])C3([H])[H])C([H])([H])C4([H])[H])c([H])c([H])c2C1([H])[H]

>  <smiles>  (17) 
[H]c1c([H])c([H])c2c(c1[H])C([H])([H])C([H])([H])C([H])([H])C2([H])N([H])C(=O)C1([H])N(C(=O)C([H])(N([H])C(=O)C([H])(N([H])C([H])([H])[H])C([H])([H])[H])C(C([H])([H])[H])(C([H])([H])[H])C([H])([H])[H])C([H])([H])c2c([H])c(OC([H])([H])C([H])([H])[N+]([H])([H])C([H])([H])c3c([H])c([H])c4c(c3[H])C([H])([H])C([H])([H])N(C(=O)N3C([H])([H])C([H])([H])C([H])([H])C([H])(n5nc(-c6c([H])c([H])c(Oc7c([H])c([H])c(F)c([H])c7F)c([H])c6[H])c(C(=O)N([H])[H])c5N([H])[H])C3([H])[H])C([H])([H])C4([H])[H])c([H])c([H])c2C1([H])[H]

$$$$
17:0:0
     RDKit          3D

 94103  0  0  1  0  0  0  0  0999 V2000
  -29.5300  -20.8840   17.4060 C   0  0  0  0  0  3  0  0  0  0  0  0
  -31.5340  -21.6000   18.5920 C   0  0  0  0  0  3  0  0  0  0  0  0
  -29.2070  -22.2310   17.1370 C   0  0  0  0  0  3  0  0  0  0  0  0
  -31.2060  -22.9460   18.3310 C   0  0  0  0  0  3  0  0  0  0  0  0
  -30.7040  -20.5600   18.1230 C   0  0  0  0  0  0  0  0  0  0  0  0
  -30.0480  -23.2670   17.5910 C   0  0  0  0  0  0  0  0  0  0  0  0
  -31.0970  -19.1030   18.3440 C   0  0  0  0  0  2  0  0  0  0  0  0
  -32.1320  -17.9200   20.3970 C   0  0  0  0  0  2  0  0  0  0  0  0
  -31.5910  -17.2300   21.6520 C   0  0  0  0  0  2  0  0  0  0  0  0
  -29.8120  -17.5270   19.9700 C   0  0  0  0  0  2  0  0  0  0  0  0
  -30.8980  -18.6020   19.7930 C   0  0  0  0  0  3  0  0  0  0  0  0
  -30.1620  -16.7870   21.2860 C   0  0  0  0  0  3  0  0  0  0  0  0
  -30.6150  -14.4120   20.4770 C   0  0  0  0  0  0  0  0  0  0  0  0
  -30.2880  -12.3020   19.2460 C   0  0  0  0  0  2  0  0  0  0  0  0
  -29.3340  -12.5550   18.0610 C   0  0  0  0  0  2  0  0  0  0  0  0
  -27.8630  -12.4200   18.5020 C   0  0  0  0  0  2  0  0  0  0  0  0
  -27.5490  -13.2180   19.7950 C   0  0  0  0  0  3  0  0  0  0  0  0
  -28.6100  -12.9330   20.8830 C   0  0  0  0  0  2  0  0  0  0  0  0
  -29.9400  -13.2420   20.3200 N   0  0  0  0  0  0  0  0  0  0  0  0
  -31.6850  -14.6520   19.9130 O   0  0  0  0  0  0  0  0  0  0  0  0
  -29.9610  -15.3330   21.2030 N   0  0  0  0  0  0  0  0  0  0  0  0
  -29.1190  -14.9920   21.6420 H   0  0  0  0  0  0  0  0  0  0  0  0
  -25.1520  -13.8280   20.5050 C   0  0  0  0  0  0  0  0  0  0  0  0
  -24.0830  -13.0550   20.8780 C   0  0  0  0  0  0  0  0  0  0  0  0
  -24.5440  -11.7040   20.8470 C   0  0  0  0  0  0  0  0  0  0  0  0
  -26.1950  -12.9460   20.2740 N   0  0  0  0  0  0  0  0  0  0  0  0
  -25.8340  -11.6620   20.5340 N   0  0  0  0  0  0  0  0  0  0  0  0
  -23.8220  -10.4400   21.0430 C   0  0  0  0  0  0  0  0  0  0  0  0
  -24.2720   -9.4700   21.9650 C   0  0  0  0  0  3  0  0  0  0  0  0
  -23.5510   -8.2700   22.1490 C   0  0  0  0  0  3  0  0  0  0  0  0
  -22.3670   -8.0330   21.4100 C   0  0  0  0  0  0  0  0  0  0  0  0
  -21.9370   -8.9930   20.4780 C   0  0  0  0  0  3  0  0  0  0  0  0
  -22.6580  -10.1840   20.2930 C   0  0  0  0  0  3  0  0  0  0  0  0
  -21.6160   -6.8870   21.5040 O   0  0  0  0  0  0  0  0  0  0  0  0
  -21.6000   -6.1290   22.6470 C   0  0  0  0  0  0  0  0  0  0  0  0
  -21.2190   -6.6700   23.8940 C   0  0  0  0  0  3  0  0  0  0  0  0
  -21.1470   -5.8390   25.0310 C   0  0  0  0  0  3  0  0  0  0  0  0
  -21.4470   -4.4670   24.9210 C   0  0  0  0  0  0  0  0  0  0  0  0
  -21.8190   -3.9250   23.6790 C   0  0  0  0  0  3  0  0  0  0  0  0
  -21.8920   -4.7530   22.5440 C   0  0  0  0  0  0  0  0  0  0  0  0
  -22.2310   -4.2220   21.3450 F   0  0  0  0  0  0  0  0  0  0  0  0
  -21.3710   -3.6660   26.0100 F   0  0  0  0  0  0  0  0  0  0  0  0
  -22.6870  -13.5290   21.1600 C   0  0  0  0  0  0  0  0  0  0  0  0
  -21.9690  -12.8320   22.0310 N   0  0  0  0  0  0  0  0  0  0  0  0
  -22.2400  -14.5520   20.6420 O   0  0  0  0  0  0  0  0  0  0  0  0
  -22.3450  -12.0070   22.4740 H   0  0  0  0  0  0  0  0  0  0  0  0
  -21.0300  -13.1230   22.2600 H   0  0  0  0  0  0  0  0  0  0  0  0
  -25.3230  -15.1980   20.3300 N   0  0  0  0  0  0  0  0  0  0  0  0
  -24.5750  -15.8690   20.4680 H   0  0  0  0  0  0  0  0  0  0  0  0
  -26.1880  -15.6290   20.0280 H   0  0  0  0  0  0  0  0  0  0  0  0
  -29.7060  -24.7180   17.2840 C   0  0  0  0  0  2  0  0  0  0  0  0
  -28.6520  -25.2880   18.2520 C   0  0  0  0  0  2  0  0  0  0  0  0
  -29.0990  -26.5760   18.9620 C   0  0  0  0  0  2  0  0  0  0  0  0
  -28.3970  -26.7620   20.1840 O   0  0  0  0  0  0  0  0  0  0  0  0
  -24.5830  -31.8830   23.2350 C   0  0  0  0  0  0  0  0  0  0  0  0
  -27.2280  -27.4760   20.1370 C   0  0  0  0  0  0  0  0  0  0  0  0
  -23.3680  -30.4760   21.6020 C   0  0  0  0  0  3  0  0  0  0  0  0
  -24.8180  -28.9410   20.1680 C   0  0  0  0  0  0  0  0  0  0  0  0
  -25.8870  -30.8450   21.3890 C   0  0  0  0  0  2  0  0  0  0  0  0
  -25.9730  -29.4760   20.7530 C   0  0  0  0  0  0  0  0  0  0  0  0
  -27.1760  -28.7450   20.7470 C   0  0  0  0  0  3  0  0  0  0  0  0
  -26.0580  -26.9370   19.5600 C   0  0  0  0  0  3  0  0  0  0  0  0
  -24.8530  -27.6670   19.5720 C   0  0  0  0  0  3  0  0  0  0  0  0
  -23.5690  -29.7930   20.2230 C   0  0  0  0  0  2  0  0  0  0  0  0
  -24.6320  -31.0780   22.1380 N   0  0  0  0  0  0  0  0  0  0  0  0
  -23.5000  -32.1790   23.7620 O   0  0  0  0  0  0  0  0  0  0  0  0
  -22.7220  -29.4560   22.5660 C   0  0  0  0  0  0  0  0  0  0  0  0
  -21.3980  -29.2740   22.4400 N   0  0  0  0  0  0  0  0  0  0  0  0
  -23.4080  -28.8320   23.3800 O   0  0  0  0  0  0  0  0  0  0  0  0
  -20.9090  -29.8300   21.7530 H   0  0  0  0  0  0  0  0  0  0  0  0
  -18.0230  -28.0850   22.9360 C   0  0  0  0  0  0  0  0  0  0  0  0
  -20.5810  -28.3380   23.2100 C   0  0  0  0  0  3  0  0  0  0  0  0
  -20.6830  -26.9070   22.6320 C   0  0  0  0  0  2  0  0  0  0  0  0
  -19.5800  -26.5880   21.6170 C   0  0  0  0  0  2  0  0  0  0  0  0
  -18.1980  -26.7360   22.2590 C   0  0  0  0  0  2  0  0  0  0  0  0
  -19.1430  -28.8450   23.3670 C   0  0  0  0  0  0  0  0  0  0  0  0
  -18.9260  -30.1090   23.9570 C   0  0  0  0  0  3  0  0  0  0  0  0
  -17.6230  -30.6130   24.1210 C   0  0  0  0  0  3  0  0  0  0  0  0
  -16.5180  -29.8510   23.7080 C   0  0  0  0  0  3  0  0  0  0  0  0
  -16.7200  -28.5880   23.1200 C   0  0  0  0  0  3  0  0  0  0  0  0
  -25.8750  -32.5010   23.8580 C   0  0  0  0  0  3  0  0  0  0  0  0
  -25.5770  -33.8970   24.1970 N   0  0  0  0  0  0  0  0  0  0  0  0
  -25.9060  -34.9500   23.4360 C   0  0  0  0  0  0  0  0  0  0  0  0
  -26.5680  -34.8460   22.4000 O   0  0  0  0  0  0  0  0  0  0  0  0
  -24.9930  -34.0540   25.0050 H   0  0  0  0  0  0  0  0  0  0  0  0
  -24.1760  -36.7400   23.0950 C   0  0  0  0  0  1  0  0  0  0  0  0
  -25.4220  -36.3370   23.8980 C   0  0  0  0  0  3  0  0  0  0  0  0
  -27.5640  -37.2140   24.7150 C   0  0  0  0  0  1  0  0  0  0  0  0
  -26.4540  -37.3890   23.7820 N   0  0  0  0  0  0  0  0  0  0  0  0
  -26.0500  -38.3090   23.9380 H   0  0  0  0  0  0  0  0  0  0  0  0
  -26.3990  -31.7180   25.1250 C   0  0  1  0  0  0  0  0  0  0  0  0
  -25.3140  -31.4740   26.1970 C   0  0  0  0  0  1  0  0  0  0  0  0
  -26.9780  -30.3440   24.7160 C   0  0  0  0  0  1  0  0  0  0  0  0
  -27.5590  -32.5030   25.7830 C   0  0  0  0  0  1  0  0  0  0  0  0
  1  5  1  0
  3  1  2  0
  3  6  1  0
  4  2  1  0
  5  7  1  0
  5  2  2  0
  6  4  2  0
  8  9  1  0
 10 12  1  0
 11  7  1  0
 11 10  1  0
 11  8  1  0
 12 21  1  0
 12  9  1  0
 13 21  1  0
 14 19  1  0
 15 16  1  0
 15 14  1  0
 17 16  1  0
 17 26  1  0
 17 18  1  0
 19 13  1  0
 19 18  1  0
 20 13  2  0
 21 22  1  0
 23 24  2  0
 24 43  1  0
 25 24  1  0
 25 28  1  0
 26 23  1  0
 26 27  1  0
 27 25  2  0
 28 29  1  0
 29 30  2  0
 31 34  1  0
 31 30  1  0
 32 31  2  0
 33 32  1  0
 33 28  2  0
 34 35  1  0
 35 36  1  0
 36 37  2  0
 38 37  1  0
 38 42  1  0
 39 38  2  0
 40 35  2  0
 40 39  1  0
 41 40  1  0
 43 44  1  0
 44 47  1  0
 44 46  1  0
 45 43  2  0
 48 49  1  0
 48 23  1  0
 50 48  1  0
 51  6  1  0
 51 52  1  0
 52 53  1  0
 53 54  1  0
 55 66  2  0
 56 54  1  0
 56 61  1  0
 57 65  1  0
 57 67  1  0
 58 64  1  0
 58 60  1  0
 59 65  1  0
 60 59  1  0
 61 60  2  0
 62 63  1  0
 62 56  2  0
 63 58  2  0
 64 57  1  0
 65 55  1  0
 67 69  2  0
 68 67  1  0
 70 68  1  0
 71 80  2  0
 71 76  1  0
 72 68  1  0
 72 76  1  0
 73 72  1  0
 74 75  1  0
 74 73  1  0
 75 71  1  0
 76 77  2  0
 77 78  1  0
 79 78  2  0
 80 79  1  0
 81 55  1  0
 81 82  1  0
 81 91  1  0
 82 85  1  0
 83 87  1  0
 83 82  1  0
 84 83  2  0
 87 86  1  0
 89 87  1  0
 89 90  1  0
 89 88  1  0
 91 94  1  1
 91 92  1  0
 93 91  1  0
M  ISO  4  13 100  21 100  53 101  54 101
M  END
>  <TORSDO>  (18) 
F 21

>  <SCORE>  (18) 
-13.357

>  <name>  (18) 
17

>  <ligand_id>  (18) 
17

>  <original_smiles>  (18) 
[H]c1c([H])c([H])c2c(c1[H])C([H])([H])C([H])([H])C([H])([H])C2([H])N([H])C(=O)C1([H])N(C(=O)C([H])(N([H])C(=O)C([H])(N([H])C([H])([H])[H])C([H])([H])[H])C(C([H])([H])[H])(C([H])([H])[H])C([H])([H])[H])C([H])([H])c2c([H])c(OC([H])([H])C([H])([H])C([H])([H])c3c([H])c([H])c(C([H])([H])C4([H])C([H])([H])C([H])([H])C([H])(N([H])C(=O)N5C([H])([H])C([H])([H])C([H])([H])C([H])(n6nc(-c7c([H])c([H])c(Oc8c([H])c([H])c(F)c([H])c8F)c([H])c7[H])c(C(=O)N([H])[H])c6N([H])[H])C5([H])[H])C4([H])[H])c([H])c3[H])c([H])c([H])c2C1([H])[H]

>  <smiles>  (18) 
[H]c1c([H])c([H])c2c(c1[H])C([H])([H])C([H])([H])C([H])([H])C2([H])N([H])C(=O)C1([H])N(C(=O)C([H])(N([H])C(=O)C([H])(N([H])C([H])([H])[H])C([H])([H])[H])C(C([H])([H])[H])(C([H])([H])[H])C([H])([H])[H])C([H])([H])c2c([H])c(OC([H])([H])C([H])([H])C([H])([H])c3c([H])c([H])c(C([H])([H])C4([H])C([H])([H])C([H])([H])C([H])(N([H])C(=O)N5C([H])([H])C([H])([H])C([H])([H])C([H])(n6nc(-c7c([H])c([H])c(Oc8c([H])c([H])c(F)c([H])c8F)c([H])c7[H])c(C(=O)N([H])[H])c6N([H])[H])C5([H])[H])C4([H])[H])c([H])c3[H])c([H])c([H])c2C1([H])[H]

$$$$
18:0:0
     RDKit          3D

 91100  0  0  1  0  0  0  0  0999 V2000
  -29.2880  -22.5550   19.5480 C   0  0  0  0  0  2  0  0  0  0  0  0
  -29.0310  -23.0590   21.5200 C   0  0  0  0  0  2  0  0  0  0  0  0
  -29.0110  -21.6740   20.7890 C   0  0  0  0  0  3  0  0  0  0  0  0
  -28.4920  -23.7370   20.2220 C   0  0  0  0  0  3  0  0  0  0  0  0
  -31.5090  -19.3120   22.6330 C   0  0  0  0  0  3  0  0  0  0  0  0
  -30.8700  -20.4790   22.1460 C   0  0  0  0  0  3  0  0  0  0  0  0
  -31.0940  -18.0300   22.2180 C   0  0  0  0  0  3  0  0  0  0  0  0
  -29.3860  -19.0820   20.8090 C   0  0  0  0  0  3  0  0  0  0  0  0
  -29.7900  -20.3920   21.2310 C   0  0  0  0  0  0  0  0  0  0  0  0
  -30.0260  -17.8930   21.2940 C   0  0  0  0  0  0  0  0  0  0  0  0
  -29.6140  -16.4680   20.8380 C   0  0  0  0  0  2  0  0  0  0  0  0
  -31.2530  -14.4740   20.0700 C   0  0  0  0  0  0  0  0  0  0  0  0
  -30.7680  -12.3290   18.9630 C   0  0  0  0  0  2  0  0  0  0  0  0
  -29.8200  -12.5220   17.7620 C   0  0  0  0  0  2  0  0  0  0  0  0
  -28.3500  -12.4630   18.2160 C   0  0  0  0  0  2  0  0  0  0  0  0
  -28.0780  -13.3240   19.4800 C   0  0  0  0  0  3  0  0  0  0  0  0
  -29.1440  -13.1090   20.5730 C   0  0  0  0  0  2  0  0  0  0  0  0
  -30.4450  -13.3760   19.9530 N   0  0  0  0  0  0  0  0  0  0  0  0
  -32.4130  -14.4370   19.6670 O   0  0  0  0  0  0  0  0  0  0  0  0
  -30.7950  -15.7300   20.3260 N   0  0  0  0  0  0  0  0  0  0  0  0
  -31.5540  -16.3790   20.1540 H   0  0  0  0  0  0  0  0  0  0  0  0
  -25.7490  -14.0490   20.2660 C   0  0  0  0  0  0  0  0  0  0  0  0
  -24.6560  -13.3330   20.6740 C   0  0  0  0  0  0  0  0  0  0  0  0
  -25.0400  -11.9590   20.6260 C   0  0  0  0  0  0  0  0  0  0  0  0
  -26.7340  -13.1090   19.9990 N   0  0  0  0  0  0  0  0  0  0  0  0
  -26.3160  -11.8480   20.2730 N   0  0  0  0  0  0  0  0  0  0  0  0
  -24.2510  -10.7410   20.8390 C   0  0  0  0  0  0  0  0  0  0  0  0
  -24.6410   -9.7630   21.7780 C   0  0  0  0  0  3  0  0  0  0  0  0
  -23.8540   -8.6070   21.9750 C   0  0  0  0  0  3  0  0  0  0  0  0
  -22.6650   -8.4210   21.2320 C   0  0  0  0  0  0  0  0  0  0  0  0
  -22.2980   -9.3870   20.2790 C   0  0  0  0  0  3  0  0  0  0  0  0
  -23.0840  -10.5330   20.0800 C   0  0  0  0  0  3  0  0  0  0  0  0
  -21.8530   -7.3190   21.3390 O   0  0  0  0  0  0  0  0  0  0  0  0
  -21.7400   -6.6210   22.5130 C   0  0  0  0  0  0  0  0  0  0  0  0
  -21.3290   -7.2410   23.7140 C   0  0  0  0  0  3  0  0  0  0  0  0
  -21.1560   -6.4710   24.8820 C   0  0  0  0  0  3  0  0  0  0  0  0
  -21.3870   -5.0830   24.8510 C   0  0  0  0  0  0  0  0  0  0  0  0
  -21.7910   -4.4620   23.6560 C   0  0  0  0  0  3  0  0  0  0  0  0
  -21.9650   -5.2300   22.4900 C   0  0  0  0  0  0  0  0  0  0  0  0
  -22.3320   -4.6250   21.3340 F   0  0  0  0  0  0  0  0  0  0  0  0
  -21.2160   -4.3390   25.9680 F   0  0  0  0  0  0  0  0  0  0  0  0
  -23.3000  -13.8900   20.9820 C   0  0  0  0  0  0  0  0  0  0  0  0
  -22.5640  -13.2480   21.8870 N   0  0  0  0  0  0  0  0  0  0  0  0
  -22.9040  -14.9360   20.4680 O   0  0  0  0  0  0  0  0  0  0  0  0
  -22.8960  -12.4090   22.3330 H   0  0  0  0  0  0  0  0  0  0  0  0
  -21.6460  -13.6040   22.1230 H   0  0  0  0  0  0  0  0  0  0  0  0
  -25.9860  -15.4040   20.0770 N   0  0  0  0  0  0  0  0  0  0  0  0
  -25.2440  -16.0910   20.1840 H   0  0  0  0  0  0  0  0  0  0  0  0
  -26.8170  -15.7910   19.6530 H   0  0  0  0  0  0  0  0  0  0  0  0
  -28.6700  -25.2420   19.7010 C   0  0  0  0  0  2  0  0  0  0  0  0
  -28.3580  -26.4730   20.4520 O   0  0  0  0  0  0  0  0  0  0  0  0
  -24.5820  -31.8740   23.2500 C   0  0  0  0  0  0  0  0  0  0  0  0
  -27.2220  -27.2810   20.2840 C   0  0  0  0  0  0  0  0  0  0  0  0
  -23.3940  -30.4540   21.6050 C   0  0  0  0  0  3  0  0  0  0  0  0
  -24.8590  -28.8900   20.1970 C   0  0  0  0  0  0  0  0  0  0  0  0
  -25.9320  -30.7590   21.4620 C   0  0  0  0  0  2  0  0  0  0  0  0
  -26.0120  -29.3790   20.8240 C   0  0  0  0  0  0  0  0  0  0  0  0
  -27.1870  -28.5830   20.8610 C   0  0  0  0  0  3  0  0  0  0  0  0
  -26.0560  -26.8320   19.6310 C   0  0  0  0  0  3  0  0  0  0  0  0
  -24.8840  -27.6250   19.5870 C   0  0  0  0  0  3  0  0  0  0  0  0
  -23.6230  -29.7710   20.2300 C   0  0  0  0  0  2  0  0  0  0  0  0
  -24.6540  -31.0380   22.1700 N   0  0  0  0  0  0  0  0  0  0  0  0
  -23.4880  -32.1940   23.7380 O   0  0  0  0  0  0  0  0  0  0  0  0
  -22.7050  -29.4500   22.5640 C   0  0  0  0  0  0  0  0  0  0  0  0
  -21.3840  -29.2530   22.3960 N   0  0  0  0  0  0  0  0  0  0  0  0
  -23.3610  -28.8510   23.4210 O   0  0  0  0  0  0  0  0  0  0  0  0
  -20.9150  -29.7730   21.6670 H   0  0  0  0  0  0  0  0  0  0  0  0
  -18.0110  -28.0080   22.7880 C   0  0  0  0  0  0  0  0  0  0  0  0
  -20.5510  -28.3290   23.1650 C   0  0  0  0  0  3  0  0  0  0  0  0
  -20.7080  -26.8820   22.6370 C   0  0  0  0  0  2  0  0  0  0  0  0
  -19.6610  -26.5070   21.5840 C   0  0  0  0  0  2  0  0  0  0  0  0
  -18.2490  -26.6450   22.1580 C   0  0  0  0  0  2  0  0  0  0  0  0
  -19.0920  -28.8020   23.2490 C   0  0  0  0  0  0  0  0  0  0  0  0
  -18.8080  -30.0730   23.7980 C   0  0  0  0  0  3  0  0  0  0  0  0
  -17.4830  -30.5350   23.9020 C   0  0  0  0  0  3  0  0  0  0  0  0
  -16.4180  -29.7310   23.4600 C   0  0  0  0  0  3  0  0  0  0  0  0
  -16.6860  -28.4700   22.9000 C   0  0  0  0  0  3  0  0  0  0  0  0
  -25.8660  -32.4890   23.8970 C   0  0  0  0  0  3  0  0  0  0  0  0
  -26.3610  -31.7180   25.1820 C   0  0  1  0  0  0  0  0  0  0  0  0
  -25.2440  -31.4900   26.2260 C   0  0  0  0  0  1  0  0  0  0  0  0
  -26.9430  -30.3380   24.8060 C   0  0  0  0  0  1  0  0  0  0  0  0
  -27.5100  -32.5020   25.8620 C   0  0  0  0  0  1  0  0  0  0  0  0
  -25.5660  -33.8870   24.2310 N   0  0  0  0  0  0  0  0  0  0  0  0
  -25.9060  -34.9420   23.4780 C   0  0  0  0  0  0  0  0  0  0  0  0
  -26.5750  -34.8410   22.4480 O   0  0  0  0  0  0  0  0  0  0  0  0
  -24.9670  -34.0430   25.0300 H   0  0  0  0  0  0  0  0  0  0  0  0
  -24.1790  -36.7370   23.1210 C   0  0  0  0  0  1  0  0  0  0  0  0
  -25.4170  -36.3300   23.9360 C   0  0  0  0  0  3  0  0  0  0  0  0
  -27.5490  -37.2090   24.7780 C   0  0  0  0  0  1  0  0  0  0  0  0
  -26.4510  -37.3790   23.8300 N   0  0  0  0  0  0  0  0  0  0  0  0
  -26.0470  -38.2990   23.9760 H   0  0  0  0  0  0  0  0  0  0  0  0
  1  4  1  0
  1  3  1  0
  3  9  1  0
  3  2  1  0
  4 50  1  0
  4  2  1  0
  6  5  2  0
  7  5  1  0
  8  9  2  0
  8 10  1  0
  9  6  1  0
 10  7  2  0
 11 10  1  0
 12 20  1  0
 13 18  1  0
 14 15  1  0
 14 13  1  0
 16 15  1  0
 16 25  1  0
 16 17  1  0
 18 12  1  0
 18 17  1  0
 19 12  2  0
 20 11  1  0
 21 20  1  0
 22 23  2  0
 23 42  1  0
 24 23  1  0
 24 27  1  0
 25 22  1  0
 25 26  1  0
 26 24  2  0
 27 28  1  0
 28 29  2  0
 30 33  1  0
 30 29  1  0
 31 30  2  0
 32 31  1  0
 32 27  2  0
 33 34  1  0
 34 35  1  0
 35 36  2  0
 37 36  1  0
 37 41  1  0
 38 37  2  0
 39 34  2  0
 39 38  1  0
 40 39  1  0
 42 43  1  0
 43 46  1  0
 43 45  1  0
 44 42  2  0
 47 48  1  0
 47 22  1  0
 49 47  1  0
 50 51  1  0
 52 63  2  0
 53 51  1  0
 53 58  1  0
 54 62  1  0
 54 64  1  0
 55 61  1  0
 55 57  1  0
 56 62  1  0
 57 58  2  0
 57 56  1  0
 59 53  2  0
 60 59  1  0
 60 55  2  0
 61 54  1  0
 62 52  1  0
 64 66  2  0
 65 64  1  0
 67 65  1  0
 68 77  2  0
 68 73  1  0
 69 65  1  0
 69 73  1  0
 70 69  1  0
 71 72  1  0
 71 70  1  0
 72 68  1  0
 73 74  2  0
 74 75  1  0
 76 75  2  0
 77 76  1  0
 78 52  1  0
 78 83  1  0
 78 79  1  0
 79 82  1  1
 79 80  1  0
 81 79  1  0
 83 86  1  0
 84 88  1  0
 84 83  1  0
 85 84  2  0
 88 87  1  0
 90 88  1  0
 90 91  1  0
 90 89  1  0
M  ISO  4  12 100  20 100  50 101  51 101
M  END
>  <TORSDO>  (19) 
F 19

>  <SCORE>  (19) 
-13.910

>  <name>  (19) 
18

>  <ligand_id>  (19) 
18

>  <original_smiles>  (19) 
[H]c1c([H])c([H])c2c(c1[H])C([H])([H])C([H])([H])C([H])([H])C2([H])N([H])C(=O)C1([H])N(C(=O)C([H])(N([H])C(=O)C([H])(N([H])C([H])([H])[H])C([H])([H])[H])C(C([H])([H])[H])(C([H])([H])[H])C([H])([H])[H])C([H])([H])c2c([H])c(OC([H])([H])C3([H])C([H])([H])C([H])(c4c([H])c([H])c([H])c(C([H])([H])N([H])C(=O)N5C([H])([H])C([H])([H])C([H])([H])C([H])(n6nc(-c7c([H])c([H])c(Oc8c([H])c([H])c(F)c([H])c8F)c([H])c7[H])c(C(=O)N([H])[H])c6N([H])[H])C5([H])[H])c4[H])C3([H])[H])c([H])c([H])c2C1([H])[H]

>  <smiles>  (19) 
[H]c1c([H])c([H])c2c(c1[H])C([H])([H])C([H])([H])C([H])([H])C2([H])N([H])C(=O)C1([H])N(C(=O)C([H])(N([H])C(=O)C([H])(N([H])C([H])([H])[H])C([H])([H])[H])C(C([H])([H])[H])(C([H])([H])[H])C([H])([H])[H])C([H])([H])c2c([H])c(OC([H])([H])C3([H])C([H])([H])C([H])(c4c([H])c([H])c([H])c(C([H])([H])N([H])C(=O)N5C([H])([H])C([H])([H])C([H])([H])C([H])(n6nc(-c7c([H])c([H])c(Oc8c([H])c([H])c(F)c([H])c8F)c([H])c7[H])c(C(=O)N([H])[H])c6N([H])[H])C5([H])[H])c4[H])C3([H])[H])c([H])c([H])c2C1([H])[H]

$$$$
19:0:0
     RDKit          3D

 95104  0  0  1  0  0  0  0  0999 V2000
  -29.7050  -23.7060   17.3050 C   0  0  0  0  0  3  0  0  0  0  0  0
  -31.2170  -22.8290   19.0050 C   0  0  0  0  0  3  0  0  0  0  0  0
  -29.8380  -24.9950   17.8540 C   0  0  0  0  0  3  0  0  0  0  0  0
  -31.3430  -24.1150   19.5580 C   0  0  0  0  0  3  0  0  0  0  0  0
  -30.3970  -22.6180   17.8800 C   0  0  0  0  0  0  0  0  0  0  0  0
  -30.6510  -25.2050   18.9910 C   0  0  0  0  0  0  0  0  0  0  0  0
  -30.2970  -21.2340   17.2730 C   0  0  0  0  0  2  0  0  0  0  0  0
  -29.5060  -20.2410   18.1460 C   0  0  0  0  0  2  0  0  0  0  0  0
  -28.3470  -17.9430   17.9700 C   0  0  0  0  0  2  0  0  0  0  0  0
  -30.9140  -18.1060   17.8730 C   0  0  0  0  0  2  0  0  0  0  0  0
  -28.4850  -17.2910   19.3560 C   0  0  0  0  0  2  0  0  0  0  0  0
  -30.9720  -17.4740   19.2790 C   0  0  0  0  0  2  0  0  0  0  0  0
  -29.5660  -18.8130   17.5690 C   0  0  0  0  0  3  0  0  0  0  0  0
  -29.7950  -16.4910   19.4130 C   0  0  0  0  0  3  0  0  0  0  0  0
  -30.6370  -14.4650   20.4850 C   0  0  0  0  0  0  0  0  0  0  0  0
  -30.3360  -12.2780   19.4450 C   0  0  0  0  0  2  0  0  0  0  0  0
  -29.4210  -12.5010   18.2200 C   0  0  0  0  0  2  0  0  0  0  0  0
  -27.9370  -12.3900   18.6200 C   0  0  0  0  0  2  0  0  0  0  0  0
  -27.5870  -13.2290   19.8770 C   0  0  0  0  0  3  0  0  0  0  0  0
  -28.6300  -13.0330   21.0070 C   0  0  0  0  0  2  0  0  0  0  0  0
  -29.9680  -13.2840   20.4510 N   0  0  0  0  0  0  0  0  0  0  0  0
  -31.8110  -14.5870   20.1320 O   0  0  0  0  0  0  0  0  0  0  0  0
  -29.8330  -15.5390   20.5350 N   0  0  0  0  0  0  0  0  0  0  0  0
  -28.9390  -15.3580   20.9600 H   0  0  0  0  0  0  0  0  0  0  0  0
  -25.1800  -13.8490   20.5450 C   0  0  0  0  0  0  0  0  0  0  0  0
  -24.1050  -13.0810   20.9050 C   0  0  0  0  0  0  0  0  0  0  0  0
  -24.5650  -11.7290   20.8920 C   0  0  0  0  0  0  0  0  0  0  0  0
  -26.2270  -12.9640   20.3390 N   0  0  0  0  0  0  0  0  0  0  0  0
  -25.8600  -11.6840   20.6060 N   0  0  0  0  0  0  0  0  0  0  0  0
  -23.8350  -10.4700   21.0840 C   0  0  0  0  0  0  0  0  0  0  0  0
  -24.2700   -9.4990   22.0130 C   0  0  0  0  0  3  0  0  0  0  0  0
  -23.5440   -8.3020   22.1920 C   0  0  0  0  0  3  0  0  0  0  0  0
  -22.3670   -8.0680   21.4420 C   0  0  0  0  0  0  0  0  0  0  0  0
  -21.9500   -9.0280   20.5030 C   0  0  0  0  0  3  0  0  0  0  0  0
  -22.6770  -10.2160   20.3220 C   0  0  0  0  0  3  0  0  0  0  0  0
  -21.6100   -6.9250   21.5300 O   0  0  0  0  0  0  0  0  0  0  0  0
  -21.5840   -6.1650   22.6720 C   0  0  0  0  0  0  0  0  0  0  0  0
  -21.2080   -6.7080   23.9200 C   0  0  0  0  0  3  0  0  0  0  0  0
  -21.1300   -5.8770   25.0550 C   0  0  0  0  0  3  0  0  0  0  0  0
  -21.4150   -4.5040   24.9430 C   0  0  0  0  0  0  0  0  0  0  0  0
  -21.7840   -3.9590   23.7010 C   0  0  0  0  0  3  0  0  0  0  0  0
  -21.8650   -4.7880   22.5670 C   0  0  0  0  0  0  0  0  0  0  0  0
  -22.2010   -4.2550   21.3690 F   0  0  0  0  0  0  0  0  0  0  0  0
  -21.3320   -3.7030   26.0320 F   0  0  0  0  0  0  0  0  0  0  0  0
  -22.7040  -13.5620   21.1520 C   0  0  0  0  0  0  0  0  0  0  0  0
  -21.9640  -12.8750   22.0140 N   0  0  0  0  0  0  0  0  0  0  0  0
  -22.2750  -14.5840   20.6170 O   0  0  0  0  0  0  0  0  0  0  0  0
  -22.3230  -12.0490   22.4700 H   0  0  0  0  0  0  0  0  0  0  0  0
  -21.0230  -13.1800   22.2250 H   0  0  0  0  0  0  0  0  0  0  0  0
  -25.3460  -15.2160   20.3570 N   0  0  0  0  0  0  0  0  0  0  0  0
  -24.5780  -15.8740   20.4420 H   0  0  0  0  0  0  0  0  0  0  0  0
  -26.1970  -15.6460   20.0200 H   0  0  0  0  0  0  0  0  0  0  0  0
  -30.8120  -26.5820   19.6190 C   0  0  0  0  0  2  0  0  0  0  0  0
  -29.5620  -27.4730   19.5750 C   0  0  0  0  0  2  0  0  0  0  0  0
  -28.4320  -26.7680   20.0860 O   0  0  0  0  0  0  0  0  0  0  0  0
  -24.6070  -31.8940   23.2360 C   0  0  0  0  0  0  0  0  0  0  0  0
  -27.2700  -27.4940   20.1460 C   0  0  0  0  0  0  0  0  0  0  0  0
  -23.3950  -30.4800   21.6050 C   0  0  0  0  0  3  0  0  0  0  0  0
  -24.8480  -28.9420   20.1800 C   0  0  0  0  0  0  0  0  0  0  0  0
  -25.9120  -30.8570   21.3910 C   0  0  0  0  0  2  0  0  0  0  0  0
  -26.0000  -29.4850   20.7600 C   0  0  0  0  0  0  0  0  0  0  0  0
  -27.2090  -28.7680   20.7520 C   0  0  0  0  0  3  0  0  0  0  0  0
  -26.1000  -26.9380   19.5890 C   0  0  0  0  0  3  0  0  0  0  0  0
  -24.8890  -27.6610   19.5980 C   0  0  0  0  0  3  0  0  0  0  0  0
  -23.5980  -29.7910   20.2280 C   0  0  0  0  0  2  0  0  0  0  0  0
  -24.6580  -31.0880   22.1390 N   0  0  0  0  0  0  0  0  0  0  0  0
  -23.5260  -32.1870   23.7630 O   0  0  0  0  0  0  0  0  0  0  0  0
  -22.7530  -29.4600   22.5710 C   0  0  0  0  0  0  0  0  0  0  0  0
  -21.4280  -29.2740   22.4460 N   0  0  0  0  0  0  0  0  0  0  0  0
  -23.4400  -28.8360   23.3850 O   0  0  0  0  0  0  0  0  0  0  0  0
  -20.9360  -29.8290   21.7610 H   0  0  0  0  0  0  0  0  0  0  0  0
  -18.0580  -28.0750   22.9410 C   0  0  0  0  0  0  0  0  0  0  0  0
  -20.6150  -28.3360   23.2180 C   0  0  0  0  0  3  0  0  0  0  0  0
  -20.7220  -26.9050   22.6460 C   0  0  0  0  0  2  0  0  0  0  0  0
  -19.6220  -26.5770   21.6290 C   0  0  0  0  0  2  0  0  0  0  0  0
  -18.2390  -26.7230   22.2700 C   0  0  0  0  0  2  0  0  0  0  0  0
  -19.1750  -28.8390   23.3710 C   0  0  0  0  0  0  0  0  0  0  0  0
  -18.9540  -30.1050   23.9550 C   0  0  0  0  0  3  0  0  0  0  0  0
  -17.6480  -30.6070   24.1140 C   0  0  0  0  0  3  0  0  0  0  0  0
  -16.5450  -29.8390   23.7020 C   0  0  0  0  0  3  0  0  0  0  0  0
  -16.7510  -28.5750   23.1210 C   0  0  0  0  0  3  0  0  0  0  0  0
  -25.9000  -32.5170   23.8570 C   0  0  0  0  0  3  0  0  0  0  0  0
  -25.5950  -33.9110   24.2010 N   0  0  0  0  0  0  0  0  0  0  0  0
  -25.9200  -34.9670   23.4430 C   0  0  0  0  0  0  0  0  0  0  0  0
  -26.5830  -34.8690   22.4070 O   0  0  0  0  0  0  0  0  0  0  0  0
  -25.0080  -34.0600   25.0090 H   0  0  0  0  0  0  0  0  0  0  0  0
  -24.1840  -36.7540   23.1090 C   0  0  0  0  0  1  0  0  0  0  0  0
  -25.4320  -36.3510   23.9110 C   0  0  0  0  0  3  0  0  0  0  0  0
  -27.5730  -37.2330   24.7260 C   0  0  0  0  0  1  0  0  0  0  0  0
  -26.4600  -37.4060   23.7950 N   0  0  0  0  0  0  0  0  0  0  0  0
  -26.0540  -38.3250   23.9540 H   0  0  0  0  0  0  0  0  0  0  0  0
  -26.4310  -31.7330   25.1190 C   0  0  1  0  0  0  0  0  0  0  0  0
  -25.3500  -31.4830   26.1960 C   0  0  0  0  0  1  0  0  0  0  0  0
  -27.0120  -30.3620   24.7040 C   0  0  0  0  0  1  0  0  0  0  0  0
  -27.5870  -32.5210   25.7790 C   0  0  0  0  0  1  0  0  0  0  0  0
  1  3  2  0
  1  5  1  0
  2  4  1  0
  3  6  1  0
  5  2  2  0
  6  4  2  0
  6 53  1  0
  7  5  1  0
  7  8  1  0
  9 11  1  0
 10 12  1  0
 11 14  1  0
 12 14  1  0
 13 10  1  0
 13  9  1  0
 13  8  1  0
 14 23  1  0
 15 23  1  0
 16 21  1  0
 17 18  1  0
 17 16  1  0
 19 18  1  0
 19 28  1  0
 19 20  1  0
 21 15  1  0
 21 20  1  0
 22 15  2  0
 23 24  1  0
 25 26  2  0
 26 45  1  0
 27 26  1  0
 27 30  1  0
 28 25  1  0
 28 29  1  0
 29 27  2  0
 30 31  1  0
 31 32  2  0
 33 36  1  0
 33 32  1  0
 34 33  2  0
 35 34  1  0
 35 30  2  0
 36 37  1  0
 37 38  1  0
 38 39  2  0
 40 39  1  0
 40 44  1  0
 41 40  2  0
 42 37  2  0
 42 41  1  0
 43 42  1  0
 45 46  1  0
 46 49  1  0
 46 48  1  0
 47 45  2  0
 50 51  1  0
 50 25  1  0
 52 50  1  0
 54 53  1  0
 54 55  1  0
 55 57  1  0
 56 67  2  0
 57 62  1  0
 58 66  1  0
 58 68  1  0
 59 65  1  0
 59 61  1  0
 60 66  1  0
 61 60  1  0
 62 61  2  0
 63 64  1  0
 63 57  2  0
 64 59  2  0
 65 58  1  0
 66 56  1  0
 68 70  2  0
 69 68  1  0
 71 69  1  0
 72 81  2  0
 72 77  1  0
 73 69  1  0
 73 77  1  0
 74 73  1  0
 75 76  1  0
 75 74  1  0
 76 72  1  0
 77 78  2  0
 78 79  1  0
 80 79  2  0
 81 80  1  0
 82 56  1  0
 82 83  1  0
 82 92  1  0
 83 86  1  0
 84 88  1  0
 84 83  1  0
 85 84  2  0
 88 87  1  0
 90 88  1  0
 90 91  1  0
 90 89  1  0
 92 95  1  1
 92 93  1  0
 94 92  1  0
M  ISO  4  15 100  23 100  54 101  55 101
M  END
>  <TORSDO>  (20) 
F 21

>  <SCORE>  (20) 
-13.553

>  <name>  (20) 
19

>  <ligand_id>  (20) 
19

>  <original_smiles>  (20) 
[H]c1c([H])c([H])c2c(c1[H])C([H])([H])C([H])([H])C([H])([H])C2([H])N([H])C(=O)C1([H])N(C(=O)C([H])(N([H])C(=O)C([H])(N([H])C([H])([H])[H])C([H])([H])[H])C(C([H])([H])[H])(C([H])([H])[H])C([H])([H])[H])C([H])([H])c2c([H])c(OC([H])([H])C([H])([H])c3c([H])c([H])c(C([H])([H])C([H])([H])C4([H])C([H])([H])C([H])([H])C([H])(N([H])C(=O)N5C([H])([H])C([H])([H])C([H])([H])C([H])(n6nc(-c7c([H])c([H])c(Oc8c([H])c([H])c(F)c([H])c8F)c([H])c7[H])c(C(=O)N([H])[H])c6N([H])[H])C5([H])[H])C([H])([H])C4([H])[H])c([H])c3[H])c([H])c([H])c2C1([H])[H]

>  <smiles>  (20) 
[H]c1c([H])c([H])c2c(c1[H])C([H])([H])C([H])([H])C([H])([H])C2([H])N([H])C(=O)C1([H])N(C(=O)C([H])(N([H])C(=O)C([H])(N([H])C([H])([H])[H])C([H])([H])[H])C(C([H])([H])[H])(C([H])([H])[H])C([H])([H])[H])C([H])([H])c2c([H])c(OC([H])([H])C([H])([H])c3c([H])c([H])c(C([H])([H])C([H])([H])C4([H])C([H])([H])C([H])([H])C([H])(N([H])C(=O)N5C([H])([H])C([H])([H])C([H])([H])C([H])(n6nc(-c7c([H])c([H])c(Oc8c([H])c([H])c(F)c([H])c8F)c([H])c7[H])c(C(=O)N([H])[H])c6N([H])[H])C5([H])[H])C([H])([H])C4([H])[H])c([H])c3[H])c([H])c([H])c2C1([H])[H]

$$$$
20:0:0
     RDKit          3D

 97105  0  0  1  0  0  0  0  0999 V2000
  -31.4440  -22.7660   20.6670 C   0  0  0  0  0  3  0  0  0  0  0  0
  -31.9360  -24.0660   20.8950 C   0  0  0  0  0  3  0  0  0  0  0  0
  -29.1720  -23.6190   20.7880 C   0  0  0  0  0  3  0  0  0  0  0  0
  -30.0500  -22.5210   20.6190 C   0  0  0  0  0  0  0  0  0  0  0  0
  -29.6530  -24.9250   21.0250 C   0  0  0  0  0  0  0  0  0  0  0  0
  -31.0520  -25.1490   21.0680 C   0  0  0  0  0  0  0  0  0  0  0  0
  -31.5890  -26.4200   21.2790 N   0  0  0  0  0  0  0  0  0  0  0  0
  -32.5680  -26.5640   21.0580 H   0  0  0  0  0  0  0  0  0  0  0  0
  -31.0160  -27.2150   21.0210 H   0  0  0  0  0  0  0  0  0  0  0  0
  -29.4570  -21.1600   20.3790 C   0  0  0  0  0  0  0  0  0  0  0  0
  -28.2820  -21.0390   20.0040 O   0  0  0  0  0  0  0  0  0  0  0  0
  -30.2990  -19.8580   20.6190 C   0  0  0  0  0  0  0  0  0  0  0  0
  -29.7780  -18.8040   19.9740 N   0  0  0  0  0  0  0  0  0  0  0  0
  -31.3040  -19.7880   21.3330 O   0  0  0  0  0  0  0  0  0  0  0  0
  -28.9350  -19.0030   19.4490 H   0  0  0  0  0  0  0  0  0  0  0  0
  -30.3140  -17.4480   19.9210 C   0  0  0  0  0  2  0  0  0  0  0  0
  -30.3560  -16.7490   21.3040 C   0  0  0  0  0  2  0  0  0  0  0  0
  -30.6700  -14.3960   20.5390 C   0  0  0  0  0  0  0  0  0  0  0  0
  -30.3510  -12.2940   19.2940 C   0  0  0  0  0  2  0  0  0  0  0  0
  -29.4130  -12.5520   18.0990 C   0  0  0  0  0  2  0  0  0  0  0  0
  -27.9340  -12.4280   18.5180 C   0  0  0  0  0  2  0  0  0  0  0  0
  -27.6060  -13.2370   19.8000 C   0  0  0  0  0  3  0  0  0  0  0  0
  -28.6460  -12.9370   20.9040 C   0  0  0  0  0  2  0  0  0  0  0  0
  -29.9880  -13.2360   20.3640 N   0  0  0  0  0  0  0  0  0  0  0  0
  -31.7620  -14.6340   20.0160 O   0  0  0  0  0  0  0  0  0  0  0  0
  -30.0020  -15.3350   21.2190 N   0  0  0  0  0  0  0  0  0  0  0  0
  -29.1180  -15.0560   21.6180 H   0  0  0  0  0  0  0  0  0  0  0  0
  -25.1940  -13.8670   20.4540 C   0  0  0  0  0  0  0  0  0  0  0  0
  -24.1170  -13.1030   20.8160 C   0  0  0  0  0  0  0  0  0  0  0  0
  -24.5740  -11.7500   20.8120 C   0  0  0  0  0  0  0  0  0  0  0  0
  -26.2420  -12.9800   20.2560 N   0  0  0  0  0  0  0  0  0  0  0  0
  -25.8680  -11.7030   20.5240 N   0  0  0  0  0  0  0  0  0  0  0  0
  -23.8430  -10.4920   21.0120 C   0  0  0  0  0  0  0  0  0  0  0  0
  -24.2700   -9.5340   21.9570 C   0  0  0  0  0  3  0  0  0  0  0  0
  -23.5430   -8.3380   22.1410 C   0  0  0  0  0  3  0  0  0  0  0  0
  -22.3750   -8.0940   21.3810 C   0  0  0  0  0  0  0  0  0  0  0  0
  -21.9680   -9.0410   20.4240 C   0  0  0  0  0  3  0  0  0  0  0  0
  -22.6960  -10.2280   20.2380 C   0  0  0  0  0  3  0  0  0  0  0  0
  -21.6190   -6.9500   21.4750 O   0  0  0  0  0  0  0  0  0  0  0  0
  -21.5710   -6.2110   22.6300 C   0  0  0  0  0  0  0  0  0  0  0  0
  -21.1570   -6.7730   23.8580 C   0  0  0  0  0  3  0  0  0  0  0  0
  -21.0590   -5.9610   25.0060 C   0  0  0  0  0  3  0  0  0  0  0  0
  -21.3620   -4.5880   24.9260 C   0  0  0  0  0  0  0  0  0  0  0  0
  -21.7670   -4.0260   23.7020 C   0  0  0  0  0  3  0  0  0  0  0  0
  -21.8690   -4.8350   22.5570 C   0  0  0  0  0  0  0  0  0  0  0  0
  -22.2420   -4.2850   21.3770 F   0  0  0  0  0  0  0  0  0  0  0  0
  -21.2590   -3.8060   26.0250 F   0  0  0  0  0  0  0  0  0  0  0  0
  -22.7160  -13.5870   21.0620 C   0  0  0  0  0  0  0  0  0  0  0  0
  -21.9770  -12.9000   21.9270 N   0  0  0  0  0  0  0  0  0  0  0  0
  -22.2850  -14.6040   20.5220 O   0  0  0  0  0  0  0  0  0  0  0  0
  -22.3390  -12.0780   22.3870 H   0  0  0  0  0  0  0  0  0  0  0  0
  -21.0340  -13.2010   22.1320 H   0  0  0  0  0  0  0  0  0  0  0  0
  -25.3700  -15.2350   20.2590 N   0  0  0  0  0  0  0  0  0  0  0  0
  -24.6120  -15.9020   20.3440 H   0  0  0  0  0  0  0  0  0  0  0  0
  -26.2320  -15.6600   19.9430 H   0  0  0  0  0  0  0  0  0  0  0  0
  -28.6400  -26.0430   21.2500 C   0  0  0  0  0  2  0  0  0  0  0  0
  -28.3630  -26.7620   20.0530 O   0  0  0  0  0  0  0  0  0  0  0  0
  -24.5790  -31.8990   23.2370 C   0  0  0  0  0  0  0  0  0  0  0  0
  -27.2070  -27.4930   20.1150 C   0  0  0  0  0  0  0  0  0  0  0  0
  -23.3600  -30.4940   21.6040 C   0  0  0  0  0  3  0  0  0  0  0  0
  -24.8050  -28.9630   20.1650 C   0  0  0  0  0  0  0  0  0  0  0  0
  -25.8810  -30.8600   21.3920 C   0  0  0  0  0  2  0  0  0  0  0  0
  -25.9640  -29.4940   20.7490 C   0  0  0  0  0  0  0  0  0  0  0  0
  -27.1700  -28.7620   20.7280 C   0  0  0  0  0  3  0  0  0  0  0  0
  -26.0410  -26.9660   19.5300 C   0  0  0  0  0  3  0  0  0  0  0  0
  -24.8360  -27.6940   19.5570 C   0  0  0  0  0  3  0  0  0  0  0  0
  -23.5590  -29.8160   20.2220 C   0  0  0  0  0  2  0  0  0  0  0  0
  -24.6250  -31.0950   22.1390 N   0  0  0  0  0  0  0  0  0  0  0  0
  -23.5000  -32.1930   23.7660 O   0  0  0  0  0  0  0  0  0  0  0  0
  -22.7180  -29.4710   22.5670 C   0  0  0  0  0  0  0  0  0  0  0  0
  -21.3930  -29.2850   22.4440 N   0  0  0  0  0  0  0  0  0  0  0  0
  -23.4060  -28.8470   23.3780 O   0  0  0  0  0  0  0  0  0  0  0  0
  -20.8990  -29.8400   21.7600 H   0  0  0  0  0  0  0  0  0  0  0  0
  -18.0260  -28.0750   22.9400 C   0  0  0  0  0  0  0  0  0  0  0  0
  -20.5820  -28.3460   23.2160 C   0  0  0  0  0  3  0  0  0  0  0  0
  -20.6930  -26.9140   22.6420 C   0  0  0  0  0  2  0  0  0  0  0  0
  -19.5930  -26.5830   21.6280 C   0  0  0  0  0  2  0  0  0  0  0  0
  -18.2100  -26.7250   22.2690 C   0  0  0  0  0  2  0  0  0  0  0  0
  -19.1400  -28.8430   23.3720 C   0  0  0  0  0  0  0  0  0  0  0  0
  -18.9150  -30.1070   23.9570 C   0  0  0  0  0  3  0  0  0  0  0  0
  -17.6080  -30.6040   24.1200 C   0  0  0  0  0  3  0  0  0  0  0  0
  -16.5080  -29.8320   23.7060 C   0  0  0  0  0  3  0  0  0  0  0  0
  -16.7180  -28.5700   23.1220 C   0  0  0  0  0  3  0  0  0  0  0  0
  -25.8750  -32.5150   23.8560 C   0  0  0  0  0  3  0  0  0  0  0  0
  -25.5800  -33.9130   24.1910 N   0  0  0  0  0  0  0  0  0  0  0  0
  -25.9140  -34.9630   23.4280 C   0  0  0  0  0  0  0  0  0  0  0  0
  -26.5760  -34.8560   22.3930 O   0  0  0  0  0  0  0  0  0  0  0  0
  -24.9930  -34.0730   24.9970 H   0  0  0  0  0  0  0  0  0  0  0  0
  -24.1920  -36.7610   23.0790 C   0  0  0  0  0  1  0  0  0  0  0  0
  -25.4340  -36.3530   23.8860 C   0  0  0  0  0  3  0  0  0  0  0  0
  -27.5770  -37.2250   24.7090 C   0  0  0  0  0  1  0  0  0  0  0  0
  -26.4710  -37.4000   23.7700 N   0  0  0  0  0  0  0  0  0  0  0  0
  -26.0710  -38.3220   23.9210 H   0  0  0  0  0  0  0  0  0  0  0  0
  -26.4000  -31.7350   25.1250 C   0  0  1  0  0  0  0  0  0  0  0  0
  -25.3140  -31.4990   26.1990 C   0  0  0  0  0  1  0  0  0  0  0  0
  -26.9760  -30.3580   24.7210 C   0  0  0  0  0  1  0  0  0  0  0  0
  -27.5610  -32.5220   25.7790 C   0  0  0  0  0  1  0  0  0  0  0  0
  1  2  1  0
  2  6  2  0
  3  5  2  0
  4  1  2  0
  4  3  1  0
  5  6  1  0
  5 56  1  0
  6  7  1  0
  8  7  1  0
  9  7  1  0
 10 12  1  0
 10  4  1  0
 11 10  2  0
 12 14  2  0
 13 12  1  0
 15 13  1  0
 16 13  1  0
 16 17  1  0
 18 26  1  0
 19 24  1  0
 20 21  1  0
 20 19  1  0
 22 21  1  0
 22 31  1  0
 22 23  1  0
 24 18  1  0
 24 23  1  0
 25 18  2  0
 26 17  1  0
 26 27  1  0
 28 29  2  0
 29 48  1  0
 30 29  1  0
 30 33  1  0
 31 28  1  0
 31 32  1  0
 32 30  2  0
 33 34  1  0
 34 35  2  0
 36 39  1  0
 36 35  1  0
 37 36  2  0
 38 37  1  0
 38 33  2  0
 39 40  1  0
 40 41  1  0
 41 42  2  0
 43 42  1  0
 43 47  1  0
 44 43  2  0
 45 40  2  0
 45 44  1  0
 46 45  1  0
 48 49  1  0
 49 52  1  0
 49 51  1  0
 50 48  2  0
 53 54  1  0
 53 28  1  0
 55 53  1  0
 57 59  1  0
 57 56  1  0
 58 69  2  0
 59 64  1  0
 60 68  1  0
 60 70  1  0
 61 67  1  0
 61 63  1  0
 62 68  1  0
 63 62  1  0
 64 63  2  0
 65 66  1  0
 65 59  2  0
 66 61  2  0
 67 60  1  0
 68 58  1  0
 70 72  2  0
 71 70  1  0
 73 71  1  0
 74 83  2  0
 74 79  1  0
 75 71  1  0
 75 79  1  0
 76 75  1  0
 77 78  1  0
 77 76  1  0
 78 74  1  0
 79 80  2  0
 80 81  1  0
 82 81  2  0
 83 82  1  0
 84 58  1  0
 84 85  1  0
 84 94  1  0
 85 88  1  0
 86 90  1  0
 86 85  1  0
 87 86  2  0
 90 89  1  0
 92 90  1  0
 92 93  1  0
 92 91  1  0
 94 97  1  1
 94 95  1  0
 96 94  1  0
M  ISO  4  18 100  26 100  56 101  57 101
M  END
>  <TORSDO>  (21) 
F 22

>  <SCORE>  (21) 
-13.277

>  <name>  (21) 
20

>  <ligand_id>  (21) 
20

>  <original_smiles>  (21) 
[H]c1c([H])c([H])c2c(c1[H])C([H])([H])C([H])([H])C([H])([H])C2([H])N([H])C(=O)C1([H])N(C(=O)C([H])(N([H])C(=O)C([H])(N([H])C([H])([H])[H])C([H])([H])[H])C(C([H])([H])[H])(C([H])([H])[H])C([H])([H])[H])C([H])([H])c2c([H])c(OC([H])([H])c3c([H])c(C(=O)C(=O)N([H])C([H])([H])C([H])([H])N([H])C(=O)N4C([H])([H])C([H])([H])C([H])([H])C([H])(n5nc(-c6c([H])c([H])c(Oc7c([H])c([H])c(F)c([H])c7F)c([H])c6[H])c(C(=O)N([H])[H])c5N([H])[H])C4([H])[H])c([H])c([H])c3N([H])[H])c([H])c([H])c2C1([H])[H]

>  <smiles>  (21) 
[H]c1c([H])c([H])c2c(c1[H])C([H])([H])C([H])([H])C([H])([H])C2([H])N([H])C(=O)C1([H])N(C(=O)C([H])(N([H])C(=O)C([H])(N([H])C([H])([H])[H])C([H])([H])[H])C(C([H])([H])[H])(C([H])([H])[H])C([H])([H])[H])C([H])([H])c2c([H])c(OC([H])([H])c3c([H])c(C(=O)C(=O)N([H])C([H])([H])C([H])([H])N([H])C(=O)N4C([H])([H])C([H])([H])C([H])([H])C([H])(n5nc(-c6c([H])c([H])c(Oc7c([H])c([H])c(F)c([H])c7F)c([H])c6[H])c(C(=O)N([H])[H])c5N([H])[H])C4([H])[H])c([H])c([H])c3N([H])[H])c([H])c([H])c2C1([H])[H]

$$$$
21:0:0
     RDKit          3D

 92101  0  0  1  0  0  0  0  0999 V2000
  -28.6820  -20.9480   19.5170 C   0  0  0  0  0  3  0  0  0  0  0  0
  -31.0540  -20.6280   19.9670 C   0  0  0  0  0  3  0  0  0  0  0  0
  -28.9400  -22.2530   19.0610 C   0  0  0  0  0  3  0  0  0  0  0  0
  -31.3100  -21.9430   19.5310 C   0  0  0  0  0  3  0  0  0  0  0  0
  -29.7360  -20.1240   19.9620 C   0  0  0  0  0  0  0  0  0  0  0  0
  -30.2560  -22.7580   19.0640 C   0  0  0  0  0  0  0  0  0  0  0  0
  -30.1360  -18.1550   21.6190 C   0  0  0  0  0  2  0  0  0  0  0  0
  -29.6850  -17.7600   19.1270 C   0  0  0  0  0  2  0  0  0  0  0  0
  -30.8180  -16.7770   21.4390 C   0  0  0  0  0  2  0  0  0  0  0  0
  -29.2290  -16.3390   19.4710 C   0  0  0  0  0  2  0  0  0  0  0  0
  -29.4400  -18.6770   20.3320 C   0  0  0  0  0  3  0  0  0  0  0  0
  -29.9120  -15.7310   20.7320 C   0  0  0  0  0  3  0  0  0  0  0  0
  -30.6810  -14.4450   20.3260 C   0  0  0  0  0  0  0  0  0  0  0  0
  -30.3620  -12.3030   19.1710 C   0  0  0  0  0  2  0  0  0  0  0  0
  -29.3960  -12.5530   17.9930 C   0  0  0  0  0  2  0  0  0  0  0  0
  -27.9250  -12.4240   18.4440 C   0  0  0  0  0  2  0  0  0  0  0  0
  -27.6220  -13.2200   19.7400 C   0  0  0  0  0  3  0  0  0  0  0  0
  -28.7020  -12.9560   20.8140 C   0  0  0  0  0  2  0  0  0  0  0  0
  -30.0190  -13.2600   20.2330 N   0  0  0  0  0  0  0  0  0  0  0  0
  -31.8290  -14.5870   19.8950 O   0  0  0  0  0  0  0  0  0  0  0  0
  -25.2380  -13.8450   20.4890 C   0  0  0  0  0  0  0  0  0  0  0  0
  -24.1720  -13.0750   20.8710 C   0  0  0  0  0  0  0  0  0  0  0  0
  -24.6290  -11.7220   20.8290 C   0  0  0  0  0  0  0  0  0  0  0  0
  -26.2760  -12.9570   20.2390 N   0  0  0  0  0  0  0  0  0  0  0  0
  -25.9130  -11.6770   20.5000 N   0  0  0  0  0  0  0  0  0  0  0  0
  -23.9030  -10.4620   21.0250 C   0  0  0  0  0  0  0  0  0  0  0  0
  -24.3530   -9.4920   21.9470 C   0  0  0  0  0  3  0  0  0  0  0  0
  -23.6310   -8.2940   22.1310 C   0  0  0  0  0  3  0  0  0  0  0  0
  -22.4460   -8.0590   21.3950 C   0  0  0  0  0  0  0  0  0  0  0  0
  -22.0160   -9.0190   20.4620 C   0  0  0  0  0  3  0  0  0  0  0  0
  -22.7380  -10.2080   20.2740 C   0  0  0  0  0  3  0  0  0  0  0  0
  -21.6940   -6.9130   21.4890 O   0  0  0  0  0  0  0  0  0  0  0  0
  -21.6630   -6.1660   22.6400 C   0  0  0  0  0  0  0  0  0  0  0  0
  -21.2480   -6.7140   23.8730 C   0  0  0  0  0  3  0  0  0  0  0  0
  -21.1630   -5.8930   25.0160 C   0  0  0  0  0  3  0  0  0  0  0  0
  -21.4850   -4.5250   24.9250 C   0  0  0  0  0  0  0  0  0  0  0  0
  -21.8940   -3.9780   23.6970 C   0  0  0  0  0  3  0  0  0  0  0  0
  -21.9800   -4.7970   22.5570 C   0  0  0  0  0  0  0  0  0  0  0  0
  -22.3530   -4.2590   21.3700 F   0  0  0  0  0  0  0  0  0  0  0  0
  -21.3990   -3.7330   26.0200 F   0  0  0  0  0  0  0  0  0  0  0  0
  -22.7820  -13.5570   21.1700 C   0  0  0  0  0  0  0  0  0  0  0  0
  -22.0680  -12.8610   22.0460 N   0  0  0  0  0  0  0  0  0  0  0  0
  -22.3370  -14.5840   20.6590 O   0  0  0  0  0  0  0  0  0  0  0  0
  -22.4400  -12.0310   22.4840 H   0  0  0  0  0  0  0  0  0  0  0  0
  -21.1340  -13.1630   22.2860 H   0  0  0  0  0  0  0  0  0  0  0  0
  -25.4060  -15.2150   20.3140 N   0  0  0  0  0  0  0  0  0  0  0  0
  -24.6450  -15.8720   20.4460 H   0  0  0  0  0  0  0  0  0  0  0  0
  -26.2560  -15.6520   19.9860 H   0  0  0  0  0  0  0  0  0  0  0  0
  -30.5450  -24.1490   18.5270 C   0  0  0  0  0  2  0  0  0  0  0  0
  -30.1050  -25.2870   19.4620 C   0  0  0  0  0  2  0  0  0  0  0  0
  -28.6010  -25.6080   19.4330 C   0  0  0  0  0  2  0  0  0  0  0  0
  -28.4340  -26.8180   20.1550 O   0  0  0  0  0  0  0  0  0  0  0  0
  -24.5640  -31.8820   23.2330 C   0  0  0  0  0  0  0  0  0  0  0  0
  -27.2180  -27.4640   20.1400 C   0  0  0  0  0  0  0  0  0  0  0  0
  -23.3550  -30.4780   21.5910 C   0  0  0  0  0  3  0  0  0  0  0  0
  -24.8070  -28.9390   20.1660 C   0  0  0  0  0  0  0  0  0  0  0  0
  -25.8780  -30.8390   21.3950 C   0  0  0  0  0  2  0  0  0  0  0  0
  -25.9600  -29.4700   20.7560 C   0  0  0  0  0  0  0  0  0  0  0  0
  -27.1610  -28.7350   20.7460 C   0  0  0  0  0  3  0  0  0  0  0  0
  -26.0450  -26.9300   19.5560 C   0  0  0  0  0  3  0  0  0  0  0  0
  -24.8420  -27.6660   19.5680 C   0  0  0  0  0  3  0  0  0  0  0  0
  -23.5630  -29.7950   20.2120 C   0  0  0  0  0  2  0  0  0  0  0  0
  -24.6170  -31.0770   22.1340 N   0  0  0  0  0  0  0  0  0  0  0  0
  -23.4790  -32.1760   23.7550 O   0  0  0  0  0  0  0  0  0  0  0  0
  -22.7040  -29.4550   22.5510 C   0  0  0  0  0  0  0  0  0  0  0  0
  -21.3810  -29.2730   22.4190 N   0  0  0  0  0  0  0  0  0  0  0  0
  -23.3870  -28.8300   23.3660 O   0  0  0  0  0  0  0  0  0  0  0  0
  -20.8930  -29.8310   21.7320 H   0  0  0  0  0  0  0  0  0  0  0  0
  -18.0030  -28.0900   22.9070 C   0  0  0  0  0  0  0  0  0  0  0  0
  -20.5620  -28.3340   23.1850 C   0  0  0  0  0  3  0  0  0  0  0  0
  -20.6580  -26.9060   22.6000 C   0  0  0  0  0  2  0  0  0  0  0  0
  -19.5580  -26.5940   21.5820 C   0  0  0  0  0  2  0  0  0  0  0  0
  -18.1750  -26.7430   22.2240 C   0  0  0  0  0  2  0  0  0  0  0  0
  -19.1250  -28.8440   23.3430 C   0  0  0  0  0  0  0  0  0  0  0  0
  -18.9130  -30.1060   23.9400 C   0  0  0  0  0  3  0  0  0  0  0  0
  -17.6110  -30.6130   24.1050 C   0  0  0  0  0  3  0  0  0  0  0  0
  -16.5030  -29.8560   23.6870 C   0  0  0  0  0  3  0  0  0  0  0  0
  -16.7000  -28.5960   23.0940 C   0  0  0  0  0  3  0  0  0  0  0  0
  -25.8530  -32.4980   23.8620 C   0  0  0  0  0  3  0  0  0  0  0  0
  -26.3680  -31.7190   25.1350 C   0  0  1  0  0  0  0  0  0  0  0  0
  -25.2740  -31.4810   26.2010 C   0  0  0  0  0  1  0  0  0  0  0  0
  -26.9450  -30.3410   24.7340 C   0  0  0  0  0  1  0  0  0  0  0  0
  -27.5220  -32.5050   25.8000 C   0  0  0  0  0  1  0  0  0  0  0  0
  -25.5530  -33.8970   24.1970 N   0  0  0  0  0  0  0  0  0  0  0  0
  -25.8840  -34.9470   23.4340 C   0  0  0  0  0  0  0  0  0  0  0  0
  -26.5500  -34.8420   22.4000 O   0  0  0  0  0  0  0  0  0  0  0  0
  -24.9620  -34.0530   25.0000 H   0  0  0  0  0  0  0  0  0  0  0  0
  -24.1570  -36.7400   23.0850 C   0  0  0  0  0  1  0  0  0  0  0  0
  -25.4000  -36.3360   23.8930 C   0  0  0  0  0  3  0  0  0  0  0  0
  -27.5410  -37.2160   24.7140 C   0  0  0  0  0  1  0  0  0  0  0  0
  -26.4350  -37.3880   23.7760 N   0  0  0  0  0  0  0  0  0  0  0  0
  -26.0300  -38.3080   23.9260 H   0  0  0  0  0  0  0  0  0  0  0  0
  1  5  1  0
  3  6  1  0
  3  1  2  0
  4  2  1  0
  5  2  2  0
  6  4  2  0
  8 10  1  0
  8 11  1  0
  9  7  1  0
 10 12  1  0
 11  5  1  0
 11  7  1  0
 12 13  1  0
 12  9  1  0
 14 19  1  0
 15 16  1  0
 15 14  1  0
 17 16  1  0
 17 24  1  0
 17 18  1  0
 19 13  1  0
 19 18  1  0
 20 13  2  0
 21 22  2  0
 22 41  1  0
 23 22  1  0
 23 26  1  0
 24 21  1  0
 24 25  1  0
 25 23  2  0
 26 27  1  0
 27 28  2  0
 29 32  1  0
 29 28  1  0
 30 29  2  0
 31 30  1  0
 31 26  2  0
 32 33  1  0
 33 34  1  0
 34 35  2  0
 36 35  1  0
 36 40  1  0
 37 36  2  0
 38 33  2  0
 38 37  1  0
 39 38  1  0
 41 42  1  0
 42 45  1  0
 42 44  1  0
 43 41  2  0
 46 47  1  0
 46 21  1  0
 48 46  1  0
 49  6  1  0
 49 50  1  0
 51 50  1  0
 51 52  1  0
 53 64  2  0
 54 52  1  0
 54 59  1  0
 55 63  1  0
 55 65  1  0
 56 62  1  0
 56 58  1  0
 57 63  1  0
 58 57  1  0
 59 58  2  0
 60 61  1  0
 60 54  2  0
 61 56  2  0
 62 55  1  0
 63 53  1  0
 65 67  2  0
 66 65  1  0
 68 66  1  0
 69 78  2  0
 69 74  1  0
 70 66  1  0
 70 74  1  0
 71 70  1  0
 72 73  1  0
 72 71  1  0
 73 69  1  0
 74 75  2  0
 75 76  1  0
 77 76  2  0
 78 77  1  0
 79 53  1  0
 79 84  1  0
 79 80  1  0
 80 83  1  1
 80 81  1  0
 82 80  1  0
 84 87  1  0
 85 89  1  0
 85 84  1  0
 86 85  2  0
 89 88  1  0
 91 89  1  0
 91 92  1  0
 91 90  1  0
M  ISO  4  12 100  13 100  51 101  52 101
M  END
>  <TORSDO>  (22) 
F 20

>  <SCORE>  (22) 
-13.945

>  <name>  (22) 
21

>  <ligand_id>  (22) 
21

>  <original_smiles>  (22) 
[H]c1c([H])c([H])c2c(c1[H])C([H])([H])C([H])([H])C([H])([H])C2([H])N([H])C(=O)C1([H])N(C(=O)C([H])(N([H])C(=O)C([H])(N([H])C([H])([H])[H])C([H])([H])[H])C(C([H])([H])[H])(C([H])([H])[H])C([H])([H])[H])C([H])([H])c2c([H])c(OC([H])([H])C([H])([H])C([H])([H])c3c([H])c([H])c(C4([H])C([H])([H])C([H])([H])C([H])(C(=O)N5C([H])([H])C([H])([H])C([H])([H])C([H])(n6nc(-c7c([H])c([H])c(Oc8c([H])c([H])c(F)c([H])c8F)c([H])c7[H])c(C(=O)N([H])[H])c6N([H])[H])C5([H])[H])C([H])([H])C4([H])[H])c([H])c3[H])c([H])c([H])c2C1([H])[H]

>  <smiles>  (22) 
[H]c1c([H])c([H])c2c(c1[H])C([H])([H])C([H])([H])C([H])([H])C2([H])N([H])C(=O)C1([H])N(C(=O)C([H])(N([H])C(=O)C([H])(N([H])C([H])([H])[H])C([H])([H])[H])C(C([H])([H])[H])(C([H])([H])[H])C([H])([H])[H])C([H])([H])c2c([H])c(OC([H])([H])C([H])([H])C([H])([H])c3c([H])c([H])c(C4([H])C([H])([H])C([H])([H])C([H])(C(=O)N5C([H])([H])C([H])([H])C([H])([H])C([H])(n6nc(-c7c([H])c([H])c(Oc8c([H])c([H])c(F)c([H])c8F)c([H])c7[H])c(C(=O)N([H])[H])c6N([H])[H])C5([H])[H])C([H])([H])C4([H])[H])c([H])c3[H])c([H])c([H])c2C1([H])[H]

$$$$
22:0:0
     RDKit          3D

 91 99  0  0  1  0  0  0  0  0999 V2000
  -29.2500  -23.4430   21.4090 C   0  0  0  0  0  3  0  0  0  0  0  0
  -29.7560  -22.1320   21.6540 C   0  0  0  0  0  3  0  0  0  0  0  0
  -28.9770  -22.8610   19.0870 C   0  0  0  0  0  3  0  0  0  0  0  0
  -28.8450  -23.8350   20.1120 C   0  0  0  0  0  0  0  0  0  0  0  0
  -29.8650  -21.1540   20.6270 C   0  0  0  0  0  0  0  0  0  0  0  0
  -29.4740  -21.5410   19.3210 C   0  0  0  0  0  0  0  0  0  0  0  0
  -29.0920  -20.8980   17.0330 C   0  0  0  0  0  1  0  0  0  0  0  0
  -29.6030  -20.5960   18.3250 O   0  0  0  0  0  0  0  0  0  0  0  0
  -30.5290  -19.7670   20.9090 C   0  0  0  0  0  2  0  0  0  0  0  0
  -29.7270  -18.4090   20.7570 C   0  0  0  0  0  2  0  0  0  0  0  0
  -30.6440  -17.1260   20.9090 C   0  0  0  0  0  2  0  0  0  0  0  0
  -30.6980  -14.6380   20.4280 C   0  0  0  0  0  0  0  0  0  0  0  0
  -30.3810  -12.4420   19.3260 C   0  0  0  0  0  2  0  0  0  0  0  0
  -29.4290  -12.6010   18.1230 C   0  0  0  0  0  2  0  0  0  0  0  0
  -27.9660  -12.4390   18.5740 C   0  0  0  0  0  2  0  0  0  0  0  0
  -27.6270  -13.2960   19.8230 C   0  0  0  0  0  3  0  0  0  0  0  0
  -28.7010  -13.1520   20.9250 C   0  0  0  0  0  2  0  0  0  0  0  0
  -30.0050  -13.4640   20.3220 N   0  0  0  0  0  0  0  0  0  0  0  0
  -31.8580  -14.7330   20.0210 O   0  0  0  0  0  0  0  0  0  0  0  0
  -30.0290  -15.7600   20.8220 N   0  0  0  0  0  0  0  0  0  0  0  0
  -29.0640  -15.6530   21.0970 H   0  0  0  0  0  0  0  0  0  0  0  0
  -25.2390  -13.8730   20.5770 C   0  0  0  0  0  0  0  0  0  0  0  0
  -24.1810  -13.0900   20.9510 C   0  0  0  0  0  0  0  0  0  0  0  0
  -24.6500  -11.7420   20.9020 C   0  0  0  0  0  0  0  0  0  0  0  0
  -26.2860  -13.0020   20.3240 N   0  0  0  0  0  0  0  0  0  0  0  0
  -25.9370  -11.7140   20.5800 N   0  0  0  0  0  0  0  0  0  0  0  0
  -23.9320  -10.4750   21.0870 C   0  0  0  0  0  0  0  0  0  0  0  0
  -24.3810   -9.4980   22.0040 C   0  0  0  0  0  3  0  0  0  0  0  0
  -23.6610   -8.2950   22.1780 C   0  0  0  0  0  3  0  0  0  0  0  0
  -22.4810   -8.0600   21.4350 C   0  0  0  0  0  0  0  0  0  0  0  0
  -22.0510   -9.0250   20.5070 C   0  0  0  0  0  3  0  0  0  0  0  0
  -22.7690  -10.2190   20.3320 C   0  0  0  0  0  3  0  0  0  0  0  0
  -21.7320   -6.9110   21.5200 O   0  0  0  0  0  0  0  0  0  0  0  0
  -21.7040   -6.1540   22.6640 C   0  0  0  0  0  0  0  0  0  0  0  0
  -21.2760   -6.6840   23.9000 C   0  0  0  0  0  3  0  0  0  0  0  0
  -21.1970   -5.8520   25.0340 C   0  0  0  0  0  3  0  0  0  0  0  0
  -21.5360   -4.4900   24.9340 C   0  0  0  0  0  0  0  0  0  0  0  0
  -21.9550   -3.9570   23.7010 C   0  0  0  0  0  3  0  0  0  0  0  0
  -22.0370   -4.7880   22.5690 C   0  0  0  0  0  0  0  0  0  0  0  0
  -22.4230   -4.2650   21.3800 F   0  0  0  0  0  0  0  0  0  0  0  0
  -21.4520   -3.6870   26.0210 F   0  0  0  0  0  0  0  0  0  0  0  0
  -22.7840  -13.5580   21.2430 C   0  0  0  0  0  0  0  0  0  0  0  0
  -22.0720  -12.8510   22.1130 N   0  0  0  0  0  0  0  0  0  0  0  0
  -22.3340  -14.5830   20.7340 O   0  0  0  0  0  0  0  0  0  0  0  0
  -22.4490  -12.0200   22.5450 H   0  0  0  0  0  0  0  0  0  0  0  0
  -21.1360  -13.1460   22.3530 H   0  0  0  0  0  0  0  0  0  0  0  0
  -25.3950  -15.2460   20.4100 N   0  0  0  0  0  0  0  0  0  0  0  0
  -24.6230  -15.8950   20.5250 H   0  0  0  0  0  0  0  0  0  0  0  0
  -26.2350  -15.6920   20.0640 H   0  0  0  0  0  0  0  0  0  0  0  0
  -27.9950  -25.1030   19.8080 C   0  0  0  0  0  2  0  0  0  0  0  0
  -28.3090  -26.4820   20.2320 O   0  0  0  0  0  0  0  0  0  0  0  0
  -24.6230  -31.9180   23.2510 C   0  0  0  0  0  0  0  0  0  0  0  0
  -27.2160  -27.3710   20.1610 C   0  0  0  0  0  0  0  0  0  0  0  0
  -23.4130  -30.5220   21.6180 C   0  0  0  0  0  3  0  0  0  0  0  0
  -24.8570  -28.9970   20.1730 C   0  0  0  0  0  0  0  0  0  0  0  0
  -25.9570  -30.8350   21.4370 C   0  0  0  0  0  2  0  0  0  0  0  0
  -26.0320  -29.4670   20.7780 C   0  0  0  0  0  0  0  0  0  0  0  0
  -27.2130  -28.6640   20.7710 C   0  0  0  0  0  3  0  0  0  0  0  0
  -26.0150  -26.9820   19.5100 C   0  0  0  0  0  3  0  0  0  0  0  0
  -24.8520  -27.7580   19.5310 C   0  0  0  0  0  3  0  0  0  0  0  0
  -23.6220  -29.8660   20.2320 C   0  0  0  0  0  2  0  0  0  0  0  0
  -24.6840  -31.1040   22.1610 N   0  0  0  0  0  0  0  0  0  0  0  0
  -23.5350  -32.2200   23.7640 O   0  0  0  0  0  0  0  0  0  0  0  0
  -22.7550  -29.4940   22.5700 C   0  0  0  0  0  0  0  0  0  0  0  0
  -21.4300  -29.3070   22.4360 N   0  0  0  0  0  0  0  0  0  0  0  0
  -23.4330  -28.8690   23.3890 O   0  0  0  0  0  0  0  0  0  0  0  0
  -20.9420  -29.8640   21.7490 H   0  0  0  0  0  0  0  0  0  0  0  0
  -18.0580  -28.0860   22.9090 C   0  0  0  0  0  0  0  0  0  0  0  0
  -20.6120  -28.3640   23.2000 C   0  0  0  0  0  3  0  0  0  0  0  0
  -20.7280  -26.9320   22.6290 C   0  0  0  0  0  2  0  0  0  0  0  0
  -19.6370  -26.5980   21.6070 C   0  0  0  0  0  2  0  0  0  0  0  0
  -18.2490  -26.7360   22.2390 C   0  0  0  0  0  2  0  0  0  0  0  0
  -19.1670  -28.8570   23.3450 C   0  0  0  0  0  0  0  0  0  0  0  0
  -18.9360  -30.1200   23.9320 C   0  0  0  0  0  3  0  0  0  0  0  0
  -17.6260  -30.6140   24.0860 C   0  0  0  0  0  3  0  0  0  0  0  0
  -16.5310  -29.8390   23.6660 C   0  0  0  0  0  3  0  0  0  0  0  0
  -16.7460  -28.5780   23.0820 C   0  0  0  0  0  3  0  0  0  0  0  0
  -25.9080  -32.5360   23.8810 C   0  0  0  0  0  3  0  0  0  0  0  0
  -25.6040  -33.9320   24.2230 N   0  0  0  0  0  0  0  0  0  0  0  0
  -25.9040  -34.9850   23.4520 C   0  0  0  0  0  0  0  0  0  0  0  0
  -26.5430  -34.8850   22.4000 O   0  0  0  0  0  0  0  0  0  0  0  0
  -25.0350  -34.0830   25.0420 H   0  0  0  0  0  0  0  0  0  0  0  0
  -24.1460  -36.7590   23.1590 C   0  0  0  0  0  1  0  0  0  0  0  0
  -25.4210  -36.3700   23.9230 C   0  0  0  0  0  3  0  0  0  0  0  0
  -27.5750  -37.2800   24.6710 C   0  0  0  0  0  1  0  0  0  0  0  0
  -26.4380  -37.4330   23.7670 N   0  0  0  0  0  0  0  0  0  0  0  0
  -26.0290  -38.3490   23.9250 H   0  0  0  0  0  0  0  0  0  0  0  0
  -26.4220  -31.7540   25.1510 C   0  0  1  0  0  0  0  0  0  0  0  0
  -25.3260  -31.5080   26.2150 C   0  0  0  0  0  1  0  0  0  0  0  0
  -27.0090  -30.3800   24.7520 C   0  0  0  0  0  1  0  0  0  0  0  0
  -27.5710  -32.5450   25.8220 C   0  0  0  0  0  1  0  0  0  0  0  0
  1  2  1  0
  3  6  2  0
  3  4  1  0
  4  1  2  0
  5  9  1  0
  5  2  2  0
  6  5  1  0
  7  8  1  0
  8  6  1  0
 10 11  1  0
 10  9  1  0
 12 20  1  0
 13 18  1  0
 14 15  1  0
 14 13  1  0
 16 15  1  0
 16 25  1  0
 16 17  1  0
 18 12  1  0
 18 17  1  0
 19 12  2  0
 20 11  1  0
 20 21  1  0
 22 23  2  0
 23 42  1  0
 24 23  1  0
 24 27  1  0
 25 22  1  0
 25 26  1  0
 26 24  2  0
 27 28  1  0
 28 29  2  0
 30 33  1  0
 30 29  1  0
 31 30  2  0
 32 31  1  0
 32 27  2  0
 33 34  1  0
 34 35  1  0
 35 36  2  0
 37 36  1  0
 37 41  1  0
 38 37  2  0
 39 34  2  0
 39 38  1  0
 40 39  1  0
 42 43  1  0
 43 46  1  0
 43 45  1  0
 44 42  2  0
 47 48  1  0
 47 22  1  0
 49 47  1  0
 50  4  1  0
 50 51  1  0
 52 63  2  0
 53 51  1  0
 53 58  1  0
 54 62  1  0
 54 64  1  0
 55 61  1  0
 55 57  1  0
 56 62  1  0
 57 56  1  0
 58 57  2  0
 59 60  1  0
 59 53  2  0
 60 55  2  0
 61 54  1  0
 62 52  1  0
 64 66  2  0
 65 64  1  0
 67 65  1  0
 68 77  2  0
 68 73  1  0
 69 65  1  0
 69 73  1  0
 70 69  1  0
 71 72  1  0
 71 70  1  0
 72 68  1  0
 73 74  2  0
 74 75  1  0
 76 75  2  0
 77 76  1  0
 78 52  1  0
 78 79  1  0
 78 88  1  0
 79 82  1  0
 80 84  1  0
 80 79  1  0
 81 80  2  0
 84 83  1  0
 86 84  1  0
 86 87  1  0
 86 85  1  0
 88 91  1  1
 88 89  1  0
 90 88  1  0
M  ISO  4  12 100  20 100  50 101  51 101
M  END
>  <TORSDO>  (23) 
F 21

>  <SCORE>  (23) 
-13.578

>  <name>  (23) 
22

>  <ligand_id>  (23) 
22

>  <original_smiles>  (23) 
[H]c1c([H])c([H])c2c(c1[H])C([H])([H])C([H])([H])C([H])([H])C2([H])N([H])C(=O)C1([H])N(C(=O)C([H])(N([H])C(=O)C([H])(N([H])C([H])([H])[H])C([H])([H])[H])C(C([H])([H])[H])(C([H])([H])[H])C([H])([H])[H])C([H])([H])c2c([H])c(OC([H])([H])c3c([H])c([H])c(C([H])([H])C([H])([H])C([H])([H])N([H])C(=O)N4C([H])([H])C([H])([H])C([H])([H])C([H])(n5nc(-c6c([H])c([H])c(Oc7c([H])c([H])c(F)c([H])c7F)c([H])c6[H])c(C(=O)N([H])[H])c5N([H])[H])C4([H])[H])c(OC([H])([H])[H])c3[H])c([H])c([H])c2C1([H])[H]

>  <smiles>  (23) 
[H]c1c([H])c([H])c2c(c1[H])C([H])([H])C([H])([H])C([H])([H])C2([H])N([H])C(=O)C1([H])N(C(=O)C([H])(N([H])C(=O)C([H])(N([H])C([H])([H])[H])C([H])([H])[H])C(C([H])([H])[H])(C([H])([H])[H])C([H])([H])[H])C([H])([H])c2c([H])c(OC([H])([H])c3c([H])c([H])c(C([H])([H])C([H])([H])C([H])([H])N([H])C(=O)N4C([H])([H])C([H])([H])C([H])([H])C([H])(n5nc(-c6c([H])c([H])c(Oc7c([H])c([H])c(F)c([H])c7F)c([H])c6[H])c(C(=O)N([H])[H])c5N([H])[H])C4([H])[H])c(OC([H])([H])[H])c3[H])c([H])c([H])c2C1([H])[H]

$$$$
23:0:0
     RDKit          3D

 95103  0  0  1  0  0  0  0  0999 V2000
  -27.8790  -21.9400   20.4460 C   0  0  0  0  0  3  0  0  0  0  0  0
  -27.8990  -23.2570   20.9440 C   0  0  0  0  0  3  0  0  0  0  0  0
  -28.7750  -22.7540   18.3380 C   0  0  0  0  0  3  0  0  0  0  0  0
  -28.3310  -21.6800   19.1390 C   0  0  0  0  0  0  0  0  0  0  0  0
  -28.4200  -24.3210   20.1780 C   0  0  0  0  0  0  0  0  0  0  0  0
  -28.8840  -24.0590   18.8600 C   0  0  0  0  0  0  0  0  0  0  0  0
  -29.5710  -25.1050   17.9980 C   0  0  0  0  0  1  0  0  0  0  0  0
  -28.3620  -20.2570   18.5900 C   0  0  0  0  0  2  0  0  0  0  0  0
  -30.8060  -20.4310   17.7790 C   0  0  0  0  0  1  0  0  0  0  0  0
  -29.7810  -19.6110   18.5970 C   0  0  0  0  0  3  0  0  0  0  0  0
  -29.7910  -18.2310   18.0550 N   0  0  0  0  0  4  0  0  0  0  0  0
  -29.2820  -18.2200   17.1840 H   0  0  0  0  0  0  0  0  0  0  0  0
  -30.7480  -18.0330   17.8130 H   0  0  0  0  0  0  0  0  0  0  0  0
  -29.3050  -17.0960   18.8830 C   0  0  0  0  0  2  0  0  0  0  0  0
  -30.0630  -16.8670   20.2200 C   0  0  0  0  0  2  0  0  0  0  0  0
  -30.6410  -14.4730   20.5780 C   0  0  0  0  0  0  0  0  0  0  0  0
  -30.4070  -12.2860   19.5070 C   0  0  0  0  0  2  0  0  0  0  0  0
  -29.4920  -12.4930   18.2840 C   0  0  0  0  0  2  0  0  0  0  0  0
  -28.0040  -12.3770   18.6710 C   0  0  0  0  0  2  0  0  0  0  0  0
  -27.6400  -13.2090   19.9290 C   0  0  0  0  0  3  0  0  0  0  0  0
  -28.6740  -12.9880   21.0580 C   0  0  0  0  0  2  0  0  0  0  0  0
  -30.0110  -13.2780   20.5150 N   0  0  0  0  0  0  0  0  0  0  0  0
  -31.8080  -14.6530   20.2250 O   0  0  0  0  0  0  0  0  0  0  0  0
  -29.8120  -15.5150   20.7490 N   0  0  0  0  0  0  0  0  0  0  0  0
  -28.8650  -15.2710   20.9990 H   0  0  0  0  0  0  0  0  0  0  0  0
  -25.2230  -13.8280   20.5560 C   0  0  0  0  0  0  0  0  0  0  0  0
  -24.1450  -13.0610   20.9090 C   0  0  0  0  0  0  0  0  0  0  0  0
  -24.6090  -11.7090   20.9110 C   0  0  0  0  0  0  0  0  0  0  0  0
  -26.2740  -12.9460   20.3710 N   0  0  0  0  0  0  0  0  0  0  0  0
  -25.9060  -11.6670   20.6380 N   0  0  0  0  0  0  0  0  0  0  0  0
  -23.8790  -10.4490   21.0980 C   0  0  0  0  0  0  0  0  0  0  0  0
  -24.3150   -9.4810   22.0300 C   0  0  0  0  0  3  0  0  0  0  0  0
  -23.5970   -8.2780   22.1990 C   0  0  0  0  0  3  0  0  0  0  0  0
  -22.4250   -8.0390   21.4400 C   0  0  0  0  0  0  0  0  0  0  0  0
  -22.0100   -8.9950   20.4960 C   0  0  0  0  0  3  0  0  0  0  0  0
  -22.7280  -10.1900   20.3250 C   0  0  0  0  0  3  0  0  0  0  0  0
  -21.6720   -6.8950   21.5260 O   0  0  0  0  0  0  0  0  0  0  0  0
  -21.6420   -6.1340   22.6680 C   0  0  0  0  0  0  0  0  0  0  0  0
  -21.2580   -6.6750   23.9150 C   0  0  0  0  0  3  0  0  0  0  0  0
  -21.1850   -5.8420   25.0490 C   0  0  0  0  0  3  0  0  0  0  0  0
  -21.4750   -4.4690   24.9370 C   0  0  0  0  0  0  0  0  0  0  0  0
  -21.8450   -3.9270   23.6930 C   0  0  0  0  0  3  0  0  0  0  0  0
  -21.9290   -4.7580   22.5630 C   0  0  0  0  0  0  0  0  0  0  0  0
  -22.2700   -4.2280   21.3630 F   0  0  0  0  0  0  0  0  0  0  0  0
  -21.3920   -3.6670   26.0230 F   0  0  0  0  0  0  0  0  0  0  0  0
  -22.7400  -13.5350   21.1380 C   0  0  0  0  0  0  0  0  0  0  0  0
  -21.9900  -12.8460   21.9900 N   0  0  0  0  0  0  0  0  0  0  0  0
  -22.3120  -14.5540   20.5920 O   0  0  0  0  0  0  0  0  0  0  0  0
  -22.3420  -12.0170   22.4480 H   0  0  0  0  0  0  0  0  0  0  0  0
  -21.0440  -13.1460   22.1840 H   0  0  0  0  0  0  0  0  0  0  0  0
  -25.3940  -15.1970   20.3590 N   0  0  0  0  0  0  0  0  0  0  0  0
  -24.6350  -15.8640   20.4440 H   0  0  0  0  0  0  0  0  0  0  0  0
  -26.2430  -15.6140   20.0000 H   0  0  0  0  0  0  0  0  0  0  0  0
  -28.5760  -25.6680   20.8800 C   0  0  0  0  0  2  0  0  0  0  0  0
  -28.4330  -26.8190   20.0610 O   0  0  0  0  0  0  0  0  0  0  0  0
  -24.6030  -31.8970   23.2410 C   0  0  0  0  0  0  0  0  0  0  0  0
  -27.2360  -27.4800   20.1420 C   0  0  0  0  0  0  0  0  0  0  0  0
  -23.3810  -30.4810   21.6120 C   0  0  0  0  0  3  0  0  0  0  0  0
  -24.8290  -28.9490   20.1720 C   0  0  0  0  0  0  0  0  0  0  0  0
  -25.9000  -30.8570   21.3880 C   0  0  0  0  0  2  0  0  0  0  0  0
  -25.9830  -29.4840   20.7580 C   0  0  0  0  0  0  0  0  0  0  0  0
  -27.1880  -28.7530   20.7440 C   0  0  0  0  0  3  0  0  0  0  0  0
  -26.0710  -26.9410   19.5610 C   0  0  0  0  0  3  0  0  0  0  0  0
  -24.8680  -27.6770   19.5690 C   0  0  0  0  0  3  0  0  0  0  0  0
  -23.5810  -29.7990   20.2290 C   0  0  0  0  0  2  0  0  0  0  0  0
  -24.6460  -31.0910   22.1420 N   0  0  0  0  0  0  0  0  0  0  0  0
  -23.5220  -32.1850   23.7740 O   0  0  0  0  0  0  0  0  0  0  0  0
  -22.7430  -29.4570   22.5760 C   0  0  0  0  0  0  0  0  0  0  0  0
  -21.4170  -29.2730   22.4600 N   0  0  0  0  0  0  0  0  0  0  0  0
  -23.4360  -28.8270   23.3770 O   0  0  0  0  0  0  0  0  0  0  0  0
  -20.9190  -29.8330   21.7840 H   0  0  0  0  0  0  0  0  0  0  0  0
  -18.0480  -28.0720   22.9670 C   0  0  0  0  0  0  0  0  0  0  0  0
  -20.6060  -28.3330   23.2350 C   0  0  0  0  0  3  0  0  0  0  0  0
  -20.7100  -26.8990   22.6620 C   0  0  0  0  0  2  0  0  0  0  0  0
  -19.6050  -26.5730   21.6520 C   0  0  0  0  0  2  0  0  0  0  0  0
  -18.2240  -26.7190   22.2990 C   0  0  0  0  0  2  0  0  0  0  0  0
  -19.1660  -28.8370   23.3930 C   0  0  0  0  0  0  0  0  0  0  0  0
  -18.9460  -30.1020   23.9760 C   0  0  0  0  0  3  0  0  0  0  0  0
  -17.6400  -30.6040   24.1390 C   0  0  0  0  0  3  0  0  0  0  0  0
  -16.5370  -29.8340   23.7300 C   0  0  0  0  0  3  0  0  0  0  0  0
  -16.7420  -28.5690   23.1510 C   0  0  0  0  0  3  0  0  0  0  0  0
  -25.8970  -32.5220   23.8590 C   0  0  0  0  0  3  0  0  0  0  0  0
  -25.5980  -33.9160   24.2000 N   0  0  0  0  0  0  0  0  0  0  0  0
  -25.9160  -34.9680   23.4360 C   0  0  0  0  0  0  0  0  0  0  0  0
  -26.5700  -34.8660   22.3930 O   0  0  0  0  0  0  0  0  0  0  0  0
  -25.0230  -34.0730   25.0160 H   0  0  0  0  0  0  0  0  0  0  0  0
  -24.1740  -36.7480   23.1010 C   0  0  0  0  0  1  0  0  0  0  0  0
  -25.4280  -36.3540   23.8980 C   0  0  0  0  0  3  0  0  0  0  0  0
  -27.5710  -37.2320   24.7020 C   0  0  0  0  0  1  0  0  0  0  0  0
  -26.4550  -37.4110   23.7760 N   0  0  0  0  0  0  0  0  0  0  0  0
  -26.0520  -38.3300   23.9400 H   0  0  0  0  0  0  0  0  0  0  0  0
  -26.4310  -31.7440   25.1230 C   0  0  1  0  0  0  0  0  0  0  0  0
  -25.3510  -31.4950   26.2000 C   0  0  0  0  0  1  0  0  0  0  0  0
  -27.0060  -30.3710   24.7090 C   0  0  0  0  0  1  0  0  0  0  0  0
  -27.5940  -32.5280   25.7760 C   0  0  0  0  0  1  0  0  0  0  0  0
  1  2  1  0
  3  6  2  0
  3  4  1  0
  4  1  2  0
  5 54  1  0
  5  2  2  0
  6  5  1  0
  7  6  1  0
  8 10  1  0
  8  4  1  0
 10  9  1  0
 11 10  1  0
 11 14  1  0
 12 11  1  0
 13 11  1  0
 14 15  1  0
 15 24  1  0
 16 24  1  0
 17 22  1  0
 18 19  1  0
 18 17  1  0
 20 19  1  0
 20 29  1  0
 20 21  1  0
 22 16  1  0
 22 21  1  0
 23 16  2  0
 24 25  1  0
 26 27  2  0
 27 28  1  0
 27 46  1  0
 28 31  1  0
 29 26  1  0
 29 30  1  0
 30 28  2  0
 31 32  1  0
 32 33  2  0
 34 37  1  0
 34 33  1  0
 35 34  2  0
 36 35  1  0
 36 31  2  0
 37 38  1  0
 38 39  1  0
 39 40  2  0
 41 40  1  0
 41 45  1  0
 42 41  2  0
 43 38  2  0
 43 42  1  0
 44 43  1  0
 46 47  1  0
 47 50  1  0
 47 49  1  0
 48 46  2  0
 51 52  1  0
 51 26  1  0
 53 51  1  0
 55 57  1  0
 55 54  1  0
 56 67  2  0
 57 62  1  0
 58 66  1  0
 58 68  1  0
 59 65  1  0
 59 61  1  0
 60 66  1  0
 61 60  1  0
 62 61  2  0
 63 64  1  0
 63 57  2  0
 64 59  2  0
 65 58  1  0
 66 56  1  0
 68 70  2  0
 69 68  1  0
 71 69  1  0
 72 81  2  0
 72 77  1  0
 73 69  1  0
 73 77  1  0
 74 73  1  0
 75 76  1  0
 75 74  1  0
 76 72  1  0
 77 78  2  0
 78 79  1  0
 80 79  2  0
 81 80  1  0
 82 56  1  0
 82 83  1  0
 82 92  1  0
 83 86  1  0
 84 88  1  0
 84 83  1  0
 85 84  2  0
 88 87  1  0
 90 88  1  0
 90 91  1  0
 90 89  1  0
 92 95  1  1
 92 93  1  0
 94 92  1  0
M  ISO  4  16 100  24 100  54 101  55 101
M  END
>  <TORSDO>  (24) 
F 22

>  <SCORE>  (24) 
-13.112

>  <name>  (24) 
23

>  <ligand_id>  (24) 
23

>  <original_smiles>  (24) 
[H]c1c([H])c([H])c2c(c1[H])C([H])([H])C([H])([H])C([H])([H])C2([H])N([H])C(=O)C1([H])N(C(=O)C([H])(N([H])C(=O)C([H])(N([H])C([H])([H])[H])C([H])([H])[H])C(C([H])([H])[H])(C([H])([H])[H])C([H])([H])[H])C([H])([H])c2c([H])c(OC([H])([H])c3c([H])c([H])c(C([H])([H])C([H])(C([H])([H])[H])[N+]([H])([H])C([H])([H])C([H])([H])N([H])C(=O)N4C([H])([H])C([H])([H])C([H])([H])C([H])(n5nc(-c6c([H])c([H])c(Oc7c([H])c([H])c(F)c([H])c7F)c([H])c6[H])c(C(=O)N([H])[H])c5N([H])[H])C4([H])[H])c([H])c3C([H])([H])[H])c([H])c([H])c2C1([H])[H]

>  <smiles>  (24) 
[H]c1c([H])c([H])c2c(c1[H])C([H])([H])C([H])([H])C([H])([H])C2([H])N([H])C(=O)C1([H])N(C(=O)C([H])(N([H])C(=O)C([H])(N([H])C([H])([H])[H])C([H])([H])[H])C(C([H])([H])[H])(C([H])([H])[H])C([H])([H])[H])C([H])([H])c2c([H])c(OC([H])([H])c3c([H])c([H])c(C([H])([H])C([H])(C([H])([H])[H])[N+]([H])([H])C([H])([H])C([H])([H])N([H])C(=O)N4C([H])([H])C([H])([H])C([H])([H])C([H])(n5nc(-c6c([H])c([H])c(Oc7c([H])c([H])c(F)c([H])c7F)c([H])c6[H])c(C(=O)N([H])[H])c5N([H])[H])C4([H])[H])c([H])c3C([H])([H])[H])c([H])c([H])c2C1([H])[H]

$$$$
24:0:0
     RDKit          3D

 96104  0  0  1  0  0  0  0  0999 V2000
  -30.7020  -20.2420   21.8870 C   0  0  0  0  0  3  0  0  0  0  0  0
  -30.5370  -21.6040   21.5670 C   0  0  0  0  0  3  0  0  0  0  0  0
  -29.8710  -19.6350   19.6840 C   0  0  0  0  0  3  0  0  0  0  0  0
  -30.3540  -19.2400   20.9550 C   0  0  0  0  0  0  0  0  0  0  0  0
  -30.0170  -21.9930   20.3110 C   0  0  0  0  0  0  0  0  0  0  0  0
  -29.6910  -20.9930   19.3570 C   0  0  0  0  0  0  0  0  0  0  0  0
  -29.1740  -21.3380   17.9640 C   0  0  0  0  0  1  0  0  0  0  0  0
  -29.8230  -23.4500   20.0030 C   0  0  0  0  0  0  0  0  0  0  0  0
  -30.9300  -24.1930   20.0970 N   0  0  0  0  0  0  0  0  0  0  0  0
  -28.7360  -23.8780   19.6100 O   0  0  0  0  0  0  0  0  0  0  0  0
  -31.7630  -23.7200   20.4150 H   0  0  0  0  0  0  0  0  0  0  0  0
  -31.1080  -25.5200   19.5110 C   0  0  0  0  0  2  0  0  0  0  0  0
  -30.9050  -26.6770   20.5130 C   0  0  0  0  0  2  0  0  0  0  0  0
  -29.4890  -26.8130   21.1140 C   0  0  0  0  0  2  0  0  0  0  0  0
  -28.5030  -26.7870   20.0790 O   0  0  0  0  0  0  0  0  0  0  0  0
  -24.6120  -31.9000   23.2660 C   0  0  0  0  0  0  0  0  0  0  0  0
  -27.3350  -27.5050   20.2080 C   0  0  0  0  0  0  0  0  0  0  0  0
  -23.4190  -30.4780   21.6230 C   0  0  0  0  0  3  0  0  0  0  0  0
  -24.8950  -28.9380   20.2240 C   0  0  0  0  0  0  0  0  0  0  0  0
  -25.9370  -30.8620   21.4330 C   0  0  0  0  0  2  0  0  0  0  0  0
  -26.0400  -29.4880   20.8160 C   0  0  0  0  0  0  0  0  0  0  0  0
  -27.2570  -28.7790   20.8140 C   0  0  0  0  0  3  0  0  0  0  0  0
  -26.1730  -26.9580   19.6190 C   0  0  0  0  0  3  0  0  0  0  0  0
  -24.9510  -27.6620   19.6340 C   0  0  0  0  0  3  0  0  0  0  0  0
  -23.6430  -29.7860   20.2510 C   0  0  0  0  0  2  0  0  0  0  0  0
  -24.6740  -31.0920   22.1680 N   0  0  0  0  0  0  0  0  0  0  0  0
  -23.5240  -32.1900   23.7800 O   0  0  0  0  0  0  0  0  0  0  0  0
  -22.7740  -29.4560   22.5860 C   0  0  0  0  0  0  0  0  0  0  0  0
  -21.4500  -29.2690   22.4560 N   0  0  0  0  0  0  0  0  0  0  0  0
  -23.4580  -28.8360   23.4020 O   0  0  0  0  0  0  0  0  0  0  0  0
  -20.9580  -29.8290   21.7740 H   0  0  0  0  0  0  0  0  0  0  0  0
  -18.0770  -28.0760   22.9460 C   0  0  0  0  0  0  0  0  0  0  0  0
  -20.6340  -28.3290   23.2240 C   0  0  0  0  0  3  0  0  0  0  0  0
  -20.7360  -26.9010   22.6410 C   0  0  0  0  0  2  0  0  0  0  0  0
  -19.6320  -26.5820   21.6270 C   0  0  0  0  0  2  0  0  0  0  0  0
  -18.2510  -26.7280   22.2710 C   0  0  0  0  0  2  0  0  0  0  0  0
  -19.1960  -28.8350   23.3810 C   0  0  0  0  0  0  0  0  0  0  0  0
  -18.9780  -30.1000   23.9730 C   0  0  0  0  0  3  0  0  0  0  0  0
  -17.6740  -30.6020   24.1370 C   0  0  0  0  0  3  0  0  0  0  0  0
  -16.5690  -29.8390   23.7190 C   0  0  0  0  0  3  0  0  0  0  0  0
  -16.7710  -28.5790   23.1290 C   0  0  0  0  0  3  0  0  0  0  0  0
  -25.8950  -32.5260   23.8970 C   0  0  0  0  0  3  0  0  0  0  0  0
  -25.5870  -33.9280   24.2120 N   0  0  0  0  0  0  0  0  0  0  0  0
  -25.9290  -34.9710   23.4450 C   0  0  0  0  0  0  0  0  0  0  0  0
  -26.6130  -34.8570   22.4230 O   0  0  0  0  0  0  0  0  0  0  0  0
  -24.9720  -34.0920   24.9960 H   0  0  0  0  0  0  0  0  0  0  0  0
  -24.2060  -36.7630   23.0560 C   0  0  0  0  0  1  0  0  0  0  0  0
  -25.4370  -36.3630   23.8830 C   0  0  0  0  0  3  0  0  0  0  0  0
  -27.5620  -37.2530   24.7270 C   0  0  0  0  0  1  0  0  0  0  0  0
  -26.4710  -37.4140   23.7720 N   0  0  0  0  0  0  0  0  0  0  0  0
  -26.0610  -38.3350   23.9110 H   0  0  0  0  0  0  0  0  0  0  0  0
  -26.4040  -31.7600   25.1820 C   0  0  1  0  0  0  0  0  0  0  0  0
  -25.3080  -31.5290   26.2460 C   0  0  0  0  0  1  0  0  0  0  0  0
  -26.9890  -30.3810   24.7990 C   0  0  0  0  0  1  0  0  0  0  0  0
  -27.5530  -32.5570   25.8460 C   0  0  0  0  0  1  0  0  0  0  0  0
  -30.4940  -17.7980   21.3260 C   0  0  0  0  0  0  0  0  0  0  0  0
  -31.0240  -17.4150   22.3760 O   0  0  0  0  0  0  0  0  0  0  0  0
  -29.8940  -16.7810   20.3510 C   0  0  0  0  0  2  0  0  0  0  0  0
  -30.6550  -14.4450   20.4190 C   0  0  0  0  0  0  0  0  0  0  0  0
  -30.3590  -12.3310   19.2240 C   0  0  0  0  0  2  0  0  0  0  0  0
  -29.4020  -12.6010   18.0420 C   0  0  0  0  0  2  0  0  0  0  0  0
  -27.9300  -12.4670   18.4770 C   0  0  0  0  0  2  0  0  0  0  0  0
  -27.6150  -13.2560   19.7790 C   0  0  0  0  0  3  0  0  0  0  0  0
  -28.6810  -12.9640   20.8640 C   0  0  0  0  0  2  0  0  0  0  0  0
  -30.0120  -13.2610   20.3040 N   0  0  0  0  0  0  0  0  0  0  0  0
  -31.7590  -14.6880   19.9200 O   0  0  0  0  0  0  0  0  0  0  0  0
  -29.8700  -15.4200   20.8750 N   0  0  0  0  0  0  0  0  0  0  0  0
  -29.0130  -15.1300   21.3170 H   0  0  0  0  0  0  0  0  0  0  0  0
  -25.2150  -13.8620   20.4970 C   0  0  0  0  0  0  0  0  0  0  0  0
  -24.1510  -13.0850   20.8730 C   0  0  0  0  0  0  0  0  0  0  0  0
  -24.6180  -11.7350   20.8400 C   0  0  0  0  0  0  0  0  0  0  0  0
  -26.2620  -12.9830   20.2590 N   0  0  0  0  0  0  0  0  0  0  0  0
  -25.9050  -11.7010   20.5210 N   0  0  0  0  0  0  0  0  0  0  0  0
  -23.9010  -10.4690   21.0430 C   0  0  0  0  0  0  0  0  0  0  0  0
  -24.3530   -9.5020   21.9690 C   0  0  0  0  0  3  0  0  0  0  0  0
  -23.6350   -8.3010   22.1540 C   0  0  0  0  0  3  0  0  0  0  0  0
  -22.4560   -8.0580   21.4110 C   0  0  0  0  0  0  0  0  0  0  0  0
  -22.0230   -9.0150   20.4760 C   0  0  0  0  0  3  0  0  0  0  0  0
  -22.7400  -10.2060   20.2900 C   0  0  0  0  0  3  0  0  0  0  0  0
  -21.7110   -6.9070   21.5050 O   0  0  0  0  0  0  0  0  0  0  0  0
  -21.6910   -6.1540   22.6510 C   0  0  0  0  0  0  0  0  0  0  0  0
  -21.2900   -6.6960   23.8900 C   0  0  0  0  0  3  0  0  0  0  0  0
  -21.2160   -5.8700   25.0300 C   0  0  0  0  0  3  0  0  0  0  0  0
  -21.5320   -4.5020   24.9300 C   0  0  0  0  0  0  0  0  0  0  0  0
  -21.9250   -3.9580   23.6950 C   0  0  0  0  0  3  0  0  0  0  0  0
  -22.0000   -4.7810   22.5560 C   0  0  0  0  0  0  0  0  0  0  0  0
  -22.3610   -4.2480   21.3650 F   0  0  0  0  0  0  0  0  0  0  0  0
  -21.4520   -3.7050   26.0220 F   0  0  0  0  0  0  0  0  0  0  0  0
  -22.7540  -13.5590   21.1530 C   0  0  0  0  0  0  0  0  0  0  0  0
  -22.0320  -12.8620   22.0240 N   0  0  0  0  0  0  0  0  0  0  0  0
  -22.3100  -14.5860   20.6390 O   0  0  0  0  0  0  0  0  0  0  0  0
  -22.4050  -12.0330   22.4640 H   0  0  0  0  0  0  0  0  0  0  0  0
  -21.0990  -13.1680   22.2580 H   0  0  0  0  0  0  0  0  0  0  0  0
  -25.3690  -15.2320   20.3170 N   0  0  0  0  0  0  0  0  0  0  0  0
  -24.5910  -15.8770   20.4150 H   0  0  0  0  0  0  0  0  0  0  0  0
  -26.2080  -15.6700   19.9540 H   0  0  0  0  0  0  0  0  0  0  0  0
  2  1  1  0
  3  4  1  0
  4 56  1  0
  4  1  2  0
  5  2  2  0
  6  3  2  0
  6  5  1  0
  7  6  1  0
  8  9  1  0
  8  5  1  0
  9 11  1  0
 10  8  2  0
 12  9  1  0
 12 13  1  0
 13 14  1  0
 15 17  1  0
 15 14  1  0
 16 27  2  0
 17 22  1  0
 18 26  1  0
 18 28  1  0
 19 25  1  0
 19 21  1  0
 20 26  1  0
 21 20  1  0
 22 21  2  0
 23 24  1  0
 23 17  2  0
 24 19  2  0
 25 18  1  0
 26 16  1  0
 28 30  2  0
 29 28  1  0
 31 29  1  0
 32 41  2  0
 32 37  1  0
 33 29  1  0
 33 37  1  0
 34 33  1  0
 35 36  1  0
 35 34  1  0
 36 32  1  0
 37 38  2  0
 38 39  1  0
 40 39  2  0
 41 40  1  0
 42 16  1  0
 42 43  1  0
 42 52  1  0
 43 46  1  0
 44 48  1  0
 44 43  1  0
 45 44  2  0
 48 47  1  0
 50 48  1  0
 50 51  1  0
 50 49  1  0
 52 55  1  1
 52 53  1  0
 54 52  1  0
 56 57  2  0
 58 67  1  0
 58 56  1  0
 59 67  1  0
 60 65  1  0
 61 62  1  0
 61 60  1  0
 63 62  1  0
 63 72  1  0
 63 64  1  0
 65 59  1  0
 65 64  1  0
 66 59  2  0
 67 68  1  0
 69 70  2  0
 70 89  1  0
 71 70  1  0
 71 74  1  0
 72 69  1  0
 72 73  1  0
 73 71  2  0
 74 75  1  0
 75 76  2  0
 77 80  1  0
 77 76  1  0
 78 77  2  0
 79 78  1  0
 79 74  2  0
 80 81  1  0
 81 82  1  0
 82 83  2  0
 84 83  1  0
 84 88  1  0
 85 84  2  0
 86 81  2  0
 86 85  1  0
 87 86  1  0
 89 90  1  0
 90 93  1  0
 90 92  1  0
 91 89  2  0
 94 95  1  0
 94 69  1  0
 96 94  1  0
M  ISO  4  14 101  15 101  59 100  67 100
M  END
>  <TORSDO>  (25) 
F 22

>  <SCORE>  (25) 
-13.410

>  <name>  (25) 
24

>  <ligand_id>  (25) 
24

>  <original_smiles>  (25) 
[H]c1c([H])c([H])c2c(c1[H])C([H])([H])C([H])([H])C([H])([H])C2([H])N([H])C(=O)C1([H])N(C(=O)C([H])(N([H])C(=O)C([H])(N([H])C([H])([H])[H])C([H])([H])[H])C(C([H])([H])[H])(C([H])([H])[H])C([H])([H])[H])C([H])([H])c2c([H])c(OC([H])([H])C([H])([H])C([H])([H])N([H])C(=O)c3c([H])c([H])c(C(=O)C([H])([H])N([H])C(=O)N4C([H])([H])C([H])([H])C([H])([H])C([H])(n5nc(-c6c([H])c([H])c(Oc7c([H])c([H])c(F)c([H])c7F)c([H])c6[H])c(C(=O)N([H])[H])c5N([H])[H])C4([H])[H])c([H])c3C([H])([H])[H])c([H])c([H])c2C1([H])[H]

>  <smiles>  (25) 
[H]c1c([H])c([H])c2c(c1[H])C([H])([H])C([H])([H])C([H])([H])C2([H])N([H])C(=O)C1([H])N(C(=O)C([H])(N([H])C(=O)C([H])(N([H])C([H])([H])[H])C([H])([H])[H])C(C([H])([H])[H])(C([H])([H])[H])C([H])([H])[H])C([H])([H])c2c([H])c(OC([H])([H])C([H])([H])C([H])([H])N([H])C(=O)c3c([H])c([H])c(C(=O)C([H])([H])N([H])C(=O)N4C([H])([H])C([H])([H])C([H])([H])C([H])(n5nc(-c6c([H])c([H])c(Oc7c([H])c([H])c(F)c([H])c7F)c([H])c6[H])c(C(=O)N([H])[H])c5N([H])[H])C4([H])[H])c([H])c3C([H])([H])[H])c([H])c([H])c2C1([H])[H]

$$$$
25:0:0
     RDKit          3D

 96104  0  0  1  0  0  0  0  0999 V2000
  -29.1390  -19.4670   20.4710 C   0  0  0  0  0  3  0  0  0  0  0  0
  -29.5040  -20.8100   20.5220 C   0  0  0  0  0  3  0  0  0  0  0  0
  -29.9870  -18.5440   19.8510 C   0  0  0  0  0  0  0  0  0  0  0  0
  -30.7080  -21.2530   19.9370 C   0  0  0  0  0  0  0  0  0  0  0  0
  -31.1950  -18.9590   19.2320 C   0  0  0  0  0  0  0  0  0  0  0  0
  -31.5100  -20.3420   19.1980 C   0  0  0  0  0  0  0  0  0  0  0  0
  -32.1720  -17.9410   18.6440 C   0  0  0  0  0  1  0  0  0  0  0  0
  -32.6660  -20.8720   18.3480 C   0  0  0  0  0  1  0  0  0  0  0  0
  -29.6000  -17.1020   19.9850 C   0  0  0  0  0  2  0  0  0  0  0  0
  -30.2910  -16.5680   21.2430 C   0  0  0  0  0  2  0  0  0  0  0  0
  -30.6930  -14.2760   20.5560 C   0  0  0  0  0  0  0  0  0  0  0  0
  -30.3190  -12.2250   19.2820 C   0  0  0  0  0  2  0  0  0  0  0  0
  -29.3720  -12.5700   18.1140 C   0  0  0  0  0  2  0  0  0  0  0  0
  -27.8920  -12.4570   18.5310 C   0  0  0  0  0  2  0  0  0  0  0  0
  -27.6020  -13.2330   19.8440 C   0  0  0  0  0  3  0  0  0  0  0  0
  -28.6470  -12.8670   20.9250 C   0  0  0  0  0  2  0  0  0  0  0  0
  -29.9930  -13.1330   20.3830 N   0  0  0  0  0  0  0  0  0  0  0  0
  -31.7280  -14.5590   19.9470 O   0  0  0  0  0  0  0  0  0  0  0  0
  -30.0950  -15.1450   21.3640 N   0  0  0  0  0  0  0  0  0  0  0  0
  -29.2890  -14.8220   21.8770 H   0  0  0  0  0  0  0  0  0  0  0  0
  -25.1960  -13.8820   20.5240 C   0  0  0  0  0  0  0  0  0  0  0  0
  -24.1270  -13.1220   20.9010 C   0  0  0  0  0  0  0  0  0  0  0  0
  -24.5770  -11.7660   20.8840 C   0  0  0  0  0  0  0  0  0  0  0  0
  -26.2410  -12.9920   20.3120 N   0  0  0  0  0  0  0  0  0  0  0  0
  -25.8660  -11.7160   20.5810 N   0  0  0  0  0  0  0  0  0  0  0  0
  -23.8470  -10.5110   21.0790 C   0  0  0  0  0  0  0  0  0  0  0  0
  -24.2910   -9.5360   21.9990 C   0  0  0  0  0  3  0  0  0  0  0  0
  -23.5600   -8.3430   22.1870 C   0  0  0  0  0  3  0  0  0  0  0  0
  -22.3670   -8.1200   21.4570 C   0  0  0  0  0  0  0  0  0  0  0  0
  -21.9460   -9.0810   20.5190 C   0  0  0  0  0  3  0  0  0  0  0  0
  -22.6770  -10.2650   20.3290 C   0  0  0  0  0  3  0  0  0  0  0  0
  -21.6030   -6.9820   21.5580 O   0  0  0  0  0  0  0  0  0  0  0  0
  -21.5850   -6.2260   22.7020 C   0  0  0  0  0  0  0  0  0  0  0  0
  -21.2160   -6.7670   23.9540 C   0  0  0  0  0  3  0  0  0  0  0  0
  -21.1520   -5.9370   25.0890 C   0  0  0  0  0  3  0  0  0  0  0  0
  -21.4360   -4.5620   24.9740 C   0  0  0  0  0  0  0  0  0  0  0  0
  -21.7910   -4.0190   23.7270 C   0  0  0  0  0  3  0  0  0  0  0  0
  -21.8640   -4.8480   22.5960 C   0  0  0  0  0  0  0  0  0  0  0  0
  -22.1900   -4.3160   21.3930 F   0  0  0  0  0  0  0  0  0  0  0  0
  -21.3640   -3.7570   26.0600 F   0  0  0  0  0  0  0  0  0  0  0  0
  -22.7300  -13.6070   21.1710 C   0  0  0  0  0  0  0  0  0  0  0  0
  -22.0000  -12.9300   22.0470 N   0  0  0  0  0  0  0  0  0  0  0  0
  -22.2980  -14.6270   20.6320 O   0  0  0  0  0  0  0  0  0  0  0  0
  -22.3570  -12.0950   22.4920 H   0  0  0  0  0  0  0  0  0  0  0  0
  -21.0630  -13.2380   22.2660 H   0  0  0  0  0  0  0  0  0  0  0  0
  -25.3660  -15.2520   20.3280 N   0  0  0  0  0  0  0  0  0  0  0  0
  -24.5960  -15.9050   20.4360 H   0  0  0  0  0  0  0  0  0  0  0  0
  -26.2280  -15.7010   20.0460 H   0  0  0  0  0  0  0  0  0  0  0  0
  -31.0640  -22.7220   20.0830 C   0  0  0  0  0  2  0  0  0  0  0  0
  -30.9060  -23.3040   21.5250 C   0  0  0  0  0  2  0  0  0  0  0  0
  -30.9440  -24.7830   21.5300 N   0  0  0  0  0  4  0  0  0  0  0  0
  -31.8450  -25.1250   21.2230 H   0  0  0  0  0  0  0  0  0  0  0  0
  -30.8220  -25.0980   22.4810 H   0  0  0  0  0  0  0  0  0  0  0  0
  -29.8560  -25.3130   20.6750 C   0  0  0  0  0  2  0  0  0  0  0  0
  -29.2950  -26.6790   21.0390 C   0  0  0  0  0  2  0  0  0  0  0  0
  -28.3580  -26.7950   19.9820 O   0  0  0  0  0  0  0  0  0  0  0  0
  -24.5770  -31.9210   23.2540 C   0  0  0  0  0  0  0  0  0  0  0  0
  -27.2090  -27.5110   20.1600 C   0  0  0  0  0  0  0  0  0  0  0  0
  -23.3620  -30.5120   21.6250 C   0  0  0  0  0  3  0  0  0  0  0  0
  -24.8090  -28.9630   20.2120 C   0  0  0  0  0  0  0  0  0  0  0  0
  -25.8820  -30.8750   21.4140 C   0  0  0  0  0  2  0  0  0  0  0  0
  -25.9650  -29.4970   20.7980 C   0  0  0  0  0  0  0  0  0  0  0  0
  -27.1710  -28.7700   20.7930 C   0  0  0  0  0  3  0  0  0  0  0  0
  -26.0440  -26.9770   19.5810 C   0  0  0  0  0  3  0  0  0  0  0  0
  -24.8340  -27.6930   19.6130 C   0  0  0  0  0  3  0  0  0  0  0  0
  -23.5690  -29.8250   20.2490 C   0  0  0  0  0  2  0  0  0  0  0  0
  -24.6280  -31.1120   22.1600 N   0  0  0  0  0  0  0  0  0  0  0  0
  -23.4930  -32.2140   23.7780 O   0  0  0  0  0  0  0  0  0  0  0  0
  -22.7130  -29.4930   22.5890 C   0  0  0  0  0  0  0  0  0  0  0  0
  -21.3880  -29.3090   22.4650 N   0  0  0  0  0  0  0  0  0  0  0  0
  -23.3980  -28.8670   23.4040 O   0  0  0  0  0  0  0  0  0  0  0  0
  -20.8940  -29.8670   21.7820 H   0  0  0  0  0  0  0  0  0  0  0  0
  -18.0180  -28.1170   22.9680 C   0  0  0  0  0  0  0  0  0  0  0  0
  -20.5750  -28.3750   23.2410 C   0  0  0  0  0  3  0  0  0  0  0  0
  -20.6790  -26.9400   22.6760 C   0  0  0  0  0  2  0  0  0  0  0  0
  -19.5770  -26.6110   21.6630 C   0  0  0  0  0  2  0  0  0  0  0  0
  -18.1940  -26.7640   22.3030 C   0  0  0  0  0  2  0  0  0  0  0  0
  -19.1350  -28.8800   23.3980 C   0  0  0  0  0  0  0  0  0  0  0  0
  -18.9160  -30.1500   23.9780 C   0  0  0  0  0  3  0  0  0  0  0  0
  -17.6090  -30.6520   24.1330 C   0  0  0  0  0  3  0  0  0  0  0  0
  -16.5060  -29.8850   23.7210 C   0  0  0  0  0  3  0  0  0  0  0  0
  -16.7110  -28.6200   23.1430 C   0  0  0  0  0  3  0  0  0  0  0  0
  -25.8690  -32.5430   23.8760 C   0  0  0  0  0  3  0  0  0  0  0  0
  -25.5700  -33.9430   24.2040 N   0  0  0  0  0  0  0  0  0  0  0  0
  -25.9000  -34.9890   23.4360 C   0  0  0  0  0  0  0  0  0  0  0  0
  -26.5670  -34.8800   22.4030 O   0  0  0  0  0  0  0  0  0  0  0  0
  -24.9920  -34.1050   25.0160 H   0  0  0  0  0  0  0  0  0  0  0  0
  -24.1810  -36.7830   23.0740 C   0  0  0  0  0  1  0  0  0  0  0  0
  -25.4190  -36.3800   23.8910 C   0  0  0  0  0  3  0  0  0  0  0  0
  -27.5590  -37.2520   24.7140 C   0  0  0  0  0  1  0  0  0  0  0  0
  -26.4560  -37.4290   23.7740 N   0  0  0  0  0  0  0  0  0  0  0  0
  -26.0550  -38.3510   23.9250 H   0  0  0  0  0  0  0  0  0  0  0  0
  -26.3910  -31.7680   25.1480 C   0  0  1  0  0  0  0  0  0  0  0  0
  -25.3060  -31.5290   26.2220 C   0  0  0  0  0  1  0  0  0  0  0  0
  -26.9650  -30.3930   24.7410 C   0  0  0  0  0  1  0  0  0  0  0  0
  -27.5530  -32.5530   25.8010 C   0  0  0  0  0  1  0  0  0  0  0  0
  1  2  1  0
  3  9  1  0
  3  1  2  0
  4 49  1  0
  4  2  2  0
  5  3  1  0
  6  5  2  0
  6  4  1  0
  7  5  1  0
  8  6  1  0
  9 10  1  0
 10 19  1  0
 11 19  1  0
 12 17  1  0
 13 14  1  0
 13 12  1  0
 15 14  1  0
 15 24  1  0
 15 16  1  0
 17 11  1  0
 17 16  1  0
 18 11  2  0
 19 20  1  0
 21 22  2  0
 22 41  1  0
 23 22  1  0
 23 26  1  0
 24 21  1  0
 24 25  1  0
 25 23  2  0
 26 27  1  0
 27 28  2  0
 29 32  1  0
 29 28  1  0
 30 29  2  0
 31 30  1  0
 31 26  2  0
 32 33  1  0
 33 34  1  0
 34 35  2  0
 36 35  1  0
 36 40  1  0
 37 36  2  0
 38 33  2  0
 38 37  1  0
 39 38  1  0
 41 42  1  0
 42 45  1  0
 42 44  1  0
 43 41  2  0
 46 47  1  0
 46 21  1  0
 48 46  1  0
 49 50  1  0
 50 51  1  0
 51 53  1  0
 52 51  1  0
 54 55  1  0
 54 51  1  0
 56 58  1  0
 56 55  1  0
 57 68  2  0
 58 63  1  0
 59 67  1  0
 59 69  1  0
 60 66  1  0
 60 62  1  0
 61 67  1  0
 62 61  1  0
 63 62  2  0
 64 65  1  0
 64 58  2  0
 65 60  2  0
 66 59  1  0
 67 57  1  0
 69 71  2  0
 70 69  1  0
 72 70  1  0
 73 82  2  0
 73 78  1  0
 74 70  1  0
 74 78  1  0
 75 74  1  0
 76 77  1  0
 76 75  1  0
 77 73  1  0
 78 79  2  0
 79 80  1  0
 81 80  2  0
 82 81  1  0
 83 57  1  0
 83 84  1  0
 83 93  1  0
 84 87  1  0
 85 89  1  0
 85 84  1  0
 86 85  2  0
 89 88  1  0
 91 89  1  0
 91 92  1  0
 91 90  1  0
 93 96  1  1
 93 94  1  0
 95 93  1  0
M  ISO  4  11 100  19 100  55 101  56 101
M  END
>  <TORSDO>  (26) 
F 23

>  <SCORE>  (26) 
-13.171

>  <name>  (26) 
25

>  <ligand_id>  (26) 
25

>  <original_smiles>  (26) 
[H]c1c([H])c([H])c2c(c1[H])C([H])([H])C([H])([H])C([H])([H])C2([H])N([H])C(=O)C1([H])N(C(=O)C([H])(N([H])C(=O)C([H])(N([H])C([H])([H])[H])C([H])([H])[H])C(C([H])([H])[H])(C([H])([H])[H])C([H])([H])[H])C([H])([H])c2c([H])c(OC([H])([H])C([H])([H])[N+]([H])([H])C([H])([H])C([H])([H])c3c([H])c([H])c(C([H])([H])C([H])([H])N([H])C(=O)N4C([H])([H])C([H])([H])C([H])([H])C([H])(n5nc(-c6c([H])c([H])c(Oc7c([H])c([H])c(F)c([H])c7F)c([H])c6[H])c(C(=O)N([H])[H])c5N([H])[H])C4([H])[H])c(C([H])([H])[H])c3C([H])([H])[H])c([H])c([H])c2C1([H])[H]

>  <smiles>  (26) 
[H]c1c([H])c([H])c2c(c1[H])C([H])([H])C([H])([H])C([H])([H])C2([H])N([H])C(=O)C1([H])N(C(=O)C([H])(N([H])C(=O)C([H])(N([H])C([H])([H])[H])C([H])([H])[H])C(C([H])([H])[H])(C([H])([H])[H])C([H])([H])[H])C([H])([H])c2c([H])c(OC([H])([H])C([H])([H])[N+]([H])([H])C([H])([H])C([H])([H])c3c([H])c([H])c(C([H])([H])C([H])([H])N([H])C(=O)N4C([H])([H])C([H])([H])C([H])([H])C([H])(n5nc(-c6c([H])c([H])c(Oc7c([H])c([H])c(F)c([H])c7F)c([H])c6[H])c(C(=O)N([H])[H])c5N([H])[H])C4([H])[H])c(C([H])([H])[H])c3C([H])([H])[H])c([H])c([H])c2C1([H])[H]

$$$$
26:0:0
     RDKit          3D

 94103  0  0  1  0  0  0  0  0999 V2000
  -29.2070  -23.4830   21.2650 C   0  0  0  0  0  3  0  0  0  0  0  0
  -30.0970  -22.4000   21.4320 C   0  0  0  0  0  3  0  0  0  0  0  0
  -30.2440  -24.0130   19.1370 C   0  0  0  0  0  3  0  0  0  0  0  0
  -29.2530  -24.2850   20.1050 C   0  0  0  0  0  0  0  0  0  0  0  0
  -31.0640  -22.0950   20.4460 C   0  0  0  0  0  0  0  0  0  0  0  0
  -31.1490  -22.9350   19.2990 C   0  0  0  0  0  0  0  0  0  0  0  0
  -32.1840  -22.6920   18.2120 C   0  0  0  0  0  1  0  0  0  0  0  0
  -32.0180  -20.9080   20.6640 C   0  0  0  0  0  2  0  0  0  0  0  0
  -31.7610  -19.6550   19.7770 C   0  0  0  0  0  2  0  0  0  0  0  0
  -29.2560  -16.7600   20.1260 C   0  0  0  0  0  2  0  0  0  0  0  0
  -30.9060  -16.6150   22.0290 C   0  0  0  0  0  2  0  0  0  0  0  0
  -30.2080  -17.7600   19.4340 C   0  0  0  0  0  2  0  0  0  0  0  0
  -31.7670  -17.6800   21.3000 C   0  0  0  0  0  2  0  0  0  0  0  0
  -29.9520  -15.7940   21.1210 C   0  0  0  0  0  3  0  0  0  0  0  0
  -30.9560  -18.5740   20.4250 N   0  0  1  0  0  4  0  0  0  0  0  0
  -30.2660  -19.0400   20.9960 H   0  0  0  0  0  0  0  0  0  0  0  0
  -30.6120  -14.5710   20.4120 C   0  0  0  0  0  0  0  0  0  0  0  0
  -30.3380  -12.4010   19.2530 C   0  0  0  0  0  2  0  0  0  0  0  0
  -29.3850  -12.5790   18.0500 C   0  0  0  0  0  2  0  0  0  0  0  0
  -27.9100  -12.4280   18.4770 C   0  0  0  0  0  2  0  0  0  0  0  0
  -27.5680  -13.2660   19.7370 C   0  0  0  0  0  3  0  0  0  0  0  0
  -28.6290  -13.0430   20.8370 C   0  0  0  0  0  2  0  0  0  0  0  0
  -29.9520  -13.3810   20.2830 N   0  0  0  0  0  0  0  0  0  0  0  0
  -31.7130  -14.7580   19.8860 O   0  0  0  0  0  0  0  0  0  0  0  0
  -25.1690  -13.8820   20.4360 C   0  0  0  0  0  0  0  0  0  0  0  0
  -24.1020  -13.1110   20.8140 C   0  0  0  0  0  0  0  0  0  0  0  0
  -24.5660  -11.7610   20.7990 C   0  0  0  0  0  0  0  0  0  0  0  0
  -26.2160  -12.9980   20.2160 N   0  0  0  0  0  0  0  0  0  0  0  0
  -25.8560  -11.7180   20.4900 N   0  0  0  0  0  0  0  0  0  0  0  0
  -23.8450  -10.4990   21.0020 C   0  0  0  0  0  0  0  0  0  0  0  0
  -24.2910   -9.5370   21.9350 C   0  0  0  0  0  3  0  0  0  0  0  0
  -23.5700   -8.3370   22.1260 C   0  0  0  0  0  3  0  0  0  0  0  0
  -22.3910   -8.0930   21.3840 C   0  0  0  0  0  0  0  0  0  0  0  0
  -21.9650   -9.0450   20.4410 C   0  0  0  0  0  3  0  0  0  0  0  0
  -22.6850  -10.2350   20.2480 C   0  0  0  0  0  3  0  0  0  0  0  0
  -21.6400   -6.9480   21.4850 O   0  0  0  0  0  0  0  0  0  0  0  0
  -21.6190   -6.2000   22.6360 C   0  0  0  0  0  0  0  0  0  0  0  0
  -21.2370   -6.7540   23.8780 C   0  0  0  0  0  3  0  0  0  0  0  0
  -21.1630   -5.9350   25.0210 C   0  0  0  0  0  3  0  0  0  0  0  0
  -21.4580   -4.5620   24.9250 C   0  0  0  0  0  0  0  0  0  0  0  0
  -21.8340   -4.0070   23.6890 C   0  0  0  0  0  3  0  0  0  0  0  0
  -21.9110   -4.8240   22.5480 C   0  0  0  0  0  0  0  0  0  0  0  0
  -22.2530   -4.2810   21.3550 F   0  0  0  0  0  0  0  0  0  0  0  0
  -21.3790   -3.7720   26.0220 F   0  0  0  0  0  0  0  0  0  0  0  0
  -22.7030  -13.5880   21.0810 C   0  0  0  0  0  0  0  0  0  0  0  0
  -21.9770  -12.8990   21.9530 N   0  0  0  0  0  0  0  0  0  0  0  0
  -22.2630  -14.6060   20.5500 O   0  0  0  0  0  0  0  0  0  0  0  0
  -22.3430  -12.0730   22.4020 H   0  0  0  0  0  0  0  0  0  0  0  0
  -21.0390  -13.2010   22.1740 H   0  0  0  0  0  0  0  0  0  0  0  0
  -25.3320  -15.2510   20.2440 N   0  0  0  0  0  0  0  0  0  0  0  0
  -24.5640  -15.9060   20.3480 H   0  0  0  0  0  0  0  0  0  0  0  0
  -26.1830  -15.6880   19.9190 H   0  0  0  0  0  0  0  0  0  0  0  0
  -28.1240  -25.2750   19.8090 C   0  0  0  0  0  2  0  0  0  0  0  0
  -28.3000  -26.6600   20.1860 O   0  0  0  0  0  0  0  0  0  0  0  0
  -24.5540  -31.9330   23.2500 C   0  0  0  0  0  0  0  0  0  0  0  0
  -27.1470  -27.4400   20.1530 C   0  0  0  0  0  0  0  0  0  0  0  0
  -23.3300  -30.5290   21.6300 C   0  0  0  0  0  3  0  0  0  0  0  0
  -24.7620  -28.9930   20.1890 C   0  0  0  0  0  0  0  0  0  0  0  0
  -25.8620  -30.8640   21.4150 C   0  0  0  0  0  2  0  0  0  0  0  0
  -25.9340  -29.4930   20.7710 C   0  0  0  0  0  0  0  0  0  0  0  0
  -27.1260  -28.7250   20.7540 C   0  0  0  0  0  3  0  0  0  0  0  0
  -25.9470  -26.9770   19.5490 C   0  0  0  0  0  3  0  0  0  0  0  0
  -24.7680  -27.7350   19.5750 C   0  0  0  0  0  3  0  0  0  0  0  0
  -23.5250  -29.8580   20.2470 C   0  0  0  0  0  2  0  0  0  0  0  0
  -24.6020  -31.1200   22.1580 N   0  0  0  0  0  0  0  0  0  0  0  0
  -23.4730  -32.2330   23.7740 O   0  0  0  0  0  0  0  0  0  0  0  0
  -22.6820  -29.5080   22.5930 C   0  0  0  0  0  0  0  0  0  0  0  0
  -21.3570  -29.3230   22.4700 N   0  0  0  0  0  0  0  0  0  0  0  0
  -23.3680  -28.8870   23.4100 O   0  0  0  0  0  0  0  0  0  0  0  0
  -20.8640  -29.8830   21.7880 H   0  0  0  0  0  0  0  0  0  0  0  0
  -17.9880  -28.1070   22.9600 C   0  0  0  0  0  0  0  0  0  0  0  0
  -20.5430  -28.3870   23.2440 C   0  0  0  0  0  3  0  0  0  0  0  0
  -20.6590  -26.9500   22.6850 C   0  0  0  0  0  2  0  0  0  0  0  0
  -19.5660  -26.6070   21.6680 C   0  0  0  0  0  2  0  0  0  0  0  0
  -18.1780  -26.7510   22.3010 C   0  0  0  0  0  2  0  0  0  0  0  0
  -19.0990  -28.8820   23.3880 C   0  0  0  0  0  0  0  0  0  0  0  0
  -18.8680  -30.1500   23.9620 C   0  0  0  0  0  3  0  0  0  0  0  0
  -17.5590  -30.6450   24.1130 C   0  0  0  0  0  3  0  0  0  0  0  0
  -16.4620  -29.8680   23.7010 C   0  0  0  0  0  3  0  0  0  0  0  0
  -16.6780  -28.6020   23.1300 C   0  0  0  0  0  3  0  0  0  0  0  0
  -25.8480  -32.5510   23.8660 C   0  0  0  0  0  3  0  0  0  0  0  0
  -26.3790  -31.7680   25.1280 C   0  0  1  0  0  0  0  0  0  0  0  0
  -25.2970  -31.5250   26.2060 C   0  0  0  0  0  1  0  0  0  0  0  0
  -26.9580  -30.3950   24.7160 C   0  0  0  0  0  1  0  0  0  0  0  0
  -27.5370  -32.5580   25.7850 C   0  0  0  0  0  1  0  0  0  0  0  0
  -25.5490  -33.9470   24.2100 N   0  0  0  0  0  0  0  0  0  0  0  0
  -25.8590  -35.0010   23.4450 C   0  0  0  0  0  0  0  0  0  0  0  0
  -26.5020  -34.9010   22.3950 O   0  0  0  0  0  0  0  0  0  0  0  0
  -24.9820  -34.1010   25.0310 H   0  0  0  0  0  0  0  0  0  0  0  0
  -24.1090  -36.7810   23.1470 C   0  0  0  0  0  1  0  0  0  0  0  0
  -25.3790  -36.3870   23.9170 C   0  0  0  0  0  3  0  0  0  0  0  0
  -27.5360  -37.2790   24.6750 C   0  0  0  0  0  1  0  0  0  0  0  0
  -26.4010  -37.4450   23.7710 N   0  0  0  0  0  0  0  0  0  0  0  0
  -25.9960  -38.3620   23.9360 H   0  0  0  0  0  0  0  0  0  0  0  0
  1  2  1  0
  3  6  2  0
  3  4  1  0
  4  1  2  0
  5  8  1  0
  5  2  2  0
  6  5  1  0
  7  6  1  0
  9 15  1  0
  9  8  1  0
 10 14  1  0
 12 10  1  0
 12 15  1  0
 13 11  1  0
 14 17  1  0
 14 11  1  0
 15 16  1  1
 15 13  1  0
 18 23  1  0
 19 20  1  0
 19 18  1  0
 21 20  1  0
 21 28  1  0
 21 22  1  0
 23 17  1  0
 23 22  1  0
 24 17  2  0
 25 26  2  0
 26 45  1  0
 27 26  1  0
 27 30  1  0
 28 25  1  0
 28 29  1  0
 29 27  2  0
 30 31  1  0
 31 32  2  0
 33 36  1  0
 33 32  1  0
 34 33  2  0
 35 34  1  0
 35 30  2  0
 36 37  1  0
 37 38  1  0
 38 39  2  0
 40 39  1  0
 40 44  1  0
 41 40  2  0
 42 37  2  0
 42 41  1  0
 43 42  1  0
 45 46  1  0
 46 49  1  0
 46 48  1  0
 47 45  2  0
 50 51  1  0
 50 25  1  0
 52 50  1  0
 53  4  1  0
 53 54  1  0
 55 66  2  0
 56 54  1  0
 56 61  1  0
 57 65  1  0
 57 67  1  0
 58 64  1  0
 58 60  1  0
 59 65  1  0
 60 59  1  0
 61 60  2  0
 62 63  1  0
 62 56  2  0
 63 58  2  0
 64 57  1  0
 65 55  1  0
 67 69  2  0
 68 67  1  0
 70 68  1  0
 71 80  2  0
 71 76  1  0
 72 68  1  0
 72 76  1  0
 73 72  1  0
 74 75  1  0
 74 73  1  0
 75 71  1  0
 76 77  2  0
 77 78  1  0
 79 78  2  0
 80 79  1  0
 81 55  1  0
 81 86  1  0
 81 82  1  0
 82 85  1  1
 82 83  1  0
 84 82  1  0
 86 89  1  0
 87 91  1  0
 87 86  1  0
 88 87  2  0
 91 90  1  0
 93 91  1  0
 93 94  1  0
 93 92  1  0
M  ISO  4  14 100  17 100  53 101  54 101
M  END
>  <TORSDO>  (27) 
F 20

>  <SCORE>  (27) 
-14.043

>  <name>  (27) 
26

>  <ligand_id>  (27) 
26

>  <original_smiles>  (27) 
[H]c1c([H])c([H])c2c(c1[H])C([H])([H])C([H])([H])C([H])([H])C2([H])N([H])C(=O)C1([H])N(C(=O)C([H])(N([H])C(=O)C([H])(N([H])C([H])([H])[H])C([H])([H])[H])C(C([H])([H])[H])(C([H])([H])[H])C([H])([H])[H])C([H])([H])c2c([H])c(OC([H])([H])c3c([H])c([H])c(C([H])([H])C([H])([H])[N+]4([H])C([H])([H])C([H])([H])C([H])(C(=O)N5C([H])([H])C([H])([H])C([H])([H])C([H])(n6nc(-c7c([H])c([H])c(Oc8c([H])c([H])c(F)c([H])c8F)c([H])c7[H])c(C(=O)N([H])[H])c6N([H])[H])C5([H])[H])C([H])([H])C4([H])[H])c(C([H])([H])[H])c3[H])c([H])c([H])c2C1([H])[H]

>  <smiles>  (27) 
[H]c1c([H])c([H])c2c(c1[H])C([H])([H])C([H])([H])C([H])([H])C2([H])N([H])C(=O)C1([H])N(C(=O)C([H])(N([H])C(=O)C([H])(N([H])C([H])([H])[H])C([H])([H])[H])C(C([H])([H])[H])(C([H])([H])[H])C([H])([H])[H])C([H])([H])c2c([H])c(OC([H])([H])c3c([H])c([H])c(C([H])([H])C([H])([H])[N+]4([H])C([H])([H])C([H])([H])C([H])(C(=O)N5C([H])([H])C([H])([H])C([H])([H])C([H])(n6nc(-c7c([H])c([H])c(Oc8c([H])c([H])c(F)c([H])c8F)c([H])c7[H])c(C(=O)N([H])[H])c6N([H])[H])C5([H])[H])C([H])([H])C4([H])[H])c(C([H])([H])[H])c3[H])c([H])c([H])c2C1([H])[H]

$$$$
27:0:0
     RDKit          3D

 91 99  0  0  1  0  0  0  0  0999 V2000
  -27.8210  -20.0940   20.2290 C   0  0  0  0  0  1  0  0  0  0  0  0
  -29.1450  -20.5600   20.6950 N   0  0  1  0  0  4  0  0  0  0  0  0
  -28.9960  -20.7420   21.6760 H   0  0  0  0  0  0  0  0  0  0  0  0
  -30.2020  -19.3680   20.8160 C   0  0  0  0  0  2  0  0  0  0  0  0
  -27.9750  -16.8400   18.8950 C   0  0  0  0  0  3  0  0  0  0  0  0
  -28.3930  -16.4470   20.1950 C   0  0  0  0  0  3  0  0  0  0  0  0
  -28.8660  -17.5340   18.0550 C   0  0  0  0  0  3  0  0  0  0  0  0
  -29.7590  -16.5570   20.5070 C   0  0  0  0  0  0  0  0  0  0  0  0
  -30.0050  -18.1150   18.6370 C   0  0  0  0  0  0  0  0  0  0  0  0
  -30.1880  -17.9170   20.0250 C   0  0  0  0  0  0  0  0  0  0  0  0
  -30.7950  -19.1490   17.8570 C   0  0  0  0  0  1  0  0  0  0  0  0
  -30.5780  -15.1440   20.4310 C   0  0  0  0  0  0  0  0  0  0  0  0
  -30.5390  -12.7500   19.5520 C   0  0  0  0  0  2  0  0  0  0  0  0
  -29.6270  -12.6340   18.3040 C   0  0  0  0  0  2  0  0  0  0  0  0
  -28.1640  -12.3630   18.7070 C   0  0  0  0  0  2  0  0  0  0  0  0
  -27.7030  -13.2960   19.8490 C   0  0  0  0  0  3  0  0  0  0  0  0
  -28.7440  -13.3740   20.9940 C   0  0  0  0  0  2  0  0  0  0  0  0
  -30.0150  -13.8520   20.4190 N   0  0  0  0  0  0  0  0  0  0  0  0
  -31.7930  -15.1900   20.1990 O   0  0  0  0  0  0  0  0  0  0  0  0
  -25.2910  -13.8740   20.5280 C   0  0  0  0  0  0  0  0  0  0  0  0
  -24.2300  -13.0950   20.8780 C   0  0  0  0  0  0  0  0  0  0  0  0
  -24.7140  -11.7530   20.8710 C   0  0  0  0  0  0  0  0  0  0  0  0
  -26.3570  -13.0070   20.3230 N   0  0  0  0  0  0  0  0  0  0  0  0
  -26.0130  -11.7250   20.5980 N   0  0  0  0  0  0  0  0  0  0  0  0
  -23.9960  -10.4900   21.0500 C   0  0  0  0  0  0  0  0  0  0  0  0
  -24.4140   -9.5370   22.0030 C   0  0  0  0  0  3  0  0  0  0  0  0
  -23.6960   -8.3340   22.1700 C   0  0  0  0  0  3  0  0  0  0  0  0
  -22.5460   -8.0800   21.3850 C   0  0  0  0  0  0  0  0  0  0  0  0
  -22.1480   -9.0240   20.4220 C   0  0  0  0  0  3  0  0  0  0  0  0
  -22.8670  -10.2190   20.2530 C   0  0  0  0  0  3  0  0  0  0  0  0
  -21.8000   -6.9300   21.4620 O   0  0  0  0  0  0  0  0  0  0  0  0
  -21.7280   -6.1990   22.6190 C   0  0  0  0  0  0  0  0  0  0  0  0
  -21.2460   -6.7540   23.8230 C   0  0  0  0  0  3  0  0  0  0  0  0
  -21.1220   -5.9470   24.9710 C   0  0  0  0  0  3  0  0  0  0  0  0
  -21.4700   -4.5850   24.9150 C   0  0  0  0  0  0  0  0  0  0  0  0
  -21.9450   -4.0270   23.7140 C   0  0  0  0  0  3  0  0  0  0  0  0
  -22.0700   -4.8320   22.5690 C   0  0  0  0  0  0  0  0  0  0  0  0
  -22.5080   -4.2870   21.4080 F   0  0  0  0  0  0  0  0  0  0  0  0
  -21.3440   -3.8060   26.0140 F   0  0  0  0  0  0  0  0  0  0  0  0
  -22.8220  -13.5640   21.1070 C   0  0  0  0  0  0  0  0  0  0  0  0
  -22.0790  -12.8730   21.9620 N   0  0  0  0  0  0  0  0  0  0  0  0
  -22.3910  -14.5820   20.5670 O   0  0  0  0  0  0  0  0  0  0  0  0
  -22.4410  -12.0510   22.4230 H   0  0  0  0  0  0  0  0  0  0  0  0
  -21.1340  -13.1680   22.1590 H   0  0  0  0  0  0  0  0  0  0  0  0
  -25.4030  -15.2440   20.3430 N   0  0  0  0  0  0  0  0  0  0  0  0
  -24.6030  -15.8590   20.4370 H   0  0  0  0  0  0  0  0  0  0  0  0
  -26.2400  -15.7230   20.0390 H   0  0  0  0  0  0  0  0  0  0  0  0
  -29.4480  -22.0250   20.1610 C   0  0  0  0  0  2  0  0  0  0  0  0
  -28.6690  -23.4210   20.7270 C   0  0  0  0  0  2  0  0  0  0  0  0
  -28.4940  -24.8800   19.8970 C   0  0  0  0  0  2  0  0  0  0  0  0
  -28.3500  -26.3250   20.4540 O   0  0  0  0  0  0  0  0  0  0  0  0
  -24.5960  -31.9540   23.2950 C   0  0  0  0  0  0  0  0  0  0  0  0
  -27.2440  -27.2420   20.3250 C   0  0  0  0  0  0  0  0  0  0  0  0
  -23.4150  -30.5290   21.6670 C   0  0  0  0  0  3  0  0  0  0  0  0
  -24.8850  -28.9500   20.2650 C   0  0  0  0  0  0  0  0  0  0  0  0
  -25.9680  -30.8100   21.5230 C   0  0  0  0  0  2  0  0  0  0  0  0
  -26.0520  -29.4160   20.8800 C   0  0  0  0  0  0  0  0  0  0  0  0
  -27.2240  -28.5750   20.8970 C   0  0  0  0  0  3  0  0  0  0  0  0
  -26.0480  -26.8670   19.6700 C   0  0  0  0  0  3  0  0  0  0  0  0
  -24.8960  -27.6890   19.6440 C   0  0  0  0  0  3  0  0  0  0  0  0
  -23.6490  -29.8360   20.2970 C   0  0  0  0  0  2  0  0  0  0  0  0
  -24.6800  -31.1150   22.2190 N   0  0  0  0  0  0  0  0  0  0  0  0
  -23.4990  -32.2670   23.7780 O   0  0  0  0  0  0  0  0  0  0  0  0
  -22.7330  -29.5300   22.6350 C   0  0  0  0  0  0  0  0  0  0  0  0
  -21.4080  -29.3440   22.4920 N   0  0  0  0  0  0  0  0  0  0  0  0
  -23.3990  -28.9240   23.4780 O   0  0  0  0  0  0  0  0  0  0  0  0
  -20.9290  -29.8860   21.7860 H   0  0  0  0  0  0  0  0  0  0  0  0
  -18.0310  -28.1200   22.9600 C   0  0  0  0  0  0  0  0  0  0  0  0
  -20.5840  -28.4080   23.2610 C   0  0  0  0  0  3  0  0  0  0  0  0
  -20.7070  -26.9710   22.7040 C   0  0  0  0  0  2  0  0  0  0  0  0
  -19.6220  -26.6280   21.6770 C   0  0  0  0  0  2  0  0  0  0  0  0
  -18.2300  -26.7660   22.2990 C   0  0  0  0  0  2  0  0  0  0  0  0
  -19.1370  -28.8970   23.3970 C   0  0  0  0  0  0  0  0  0  0  0  0
  -18.8960  -30.1630   23.9760 C   0  0  0  0  0  3  0  0  0  0  0  0
  -17.5840  -30.6500   24.1220 C   0  0  0  0  0  3  0  0  0  0  0  0
  -16.4930  -29.8700   23.6990 C   0  0  0  0  0  3  0  0  0  0  0  0
  -16.7180  -28.6070   23.1250 C   0  0  0  0  0  3  0  0  0  0  0  0
  -25.8670  -32.5880   23.9430 C   0  0  0  0  0  3  0  0  0  0  0  0
  -25.5620  -33.9970   24.2390 N   0  0  0  0  0  0  0  0  0  0  0  0
  -25.9160  -35.0330   23.4670 C   0  0  0  0  0  0  0  0  0  0  0  0
  -26.6020  -34.9020   22.4490 O   0  0  0  0  0  0  0  0  0  0  0  0
  -24.9570  -34.1720   25.0270 H   0  0  0  0  0  0  0  0  0  0  0  0
  -24.2130  -36.8350   23.0440 C   0  0  0  0  0  1  0  0  0  0  0  0
  -25.4340  -36.4350   23.8870 C   0  0  0  0  0  3  0  0  0  0  0  0
  -27.5580  -37.3190   24.7450 C   0  0  0  0  0  1  0  0  0  0  0  0
  -26.4790  -37.4760   23.7740 N   0  0  0  0  0  0  0  0  0  0  0  0
  -26.0780  -38.4020   23.8910 H   0  0  0  0  0  0  0  0  0  0  0  0
  -26.3430  -31.8460   25.2530 C   0  0  1  0  0  0  0  0  0  0  0  0
  -25.2200  -31.6430   26.2960 C   0  0  0  0  0  1  0  0  0  0  0  0
  -26.9290  -30.4550   24.9190 C   0  0  0  0  0  1  0  0  0  0  0  0
  -27.4840  -32.6490   25.9250 C   0  0  0  0  0  1  0  0  0  0  0  0
  1  2  1  0
  2  4  1  0
  2  3  1  1
  5  6  1  0
  6  8  2  0
  7  9  1  0
  7  5  2  0
  9 10  2  0
 10  8  1  0
 10  4  1  0
 11  9  1  0
 12  8  1  0
 13 18  1  0
 14 15  1  0
 14 13  1  0
 16 15  1  0
 16 23  1  0
 16 17  1  0
 18 12  1  0
 18 17  1  0
 19 12  2  0
 20 21  2  0
 21 40  1  0
 22 21  1  0
 22 25  1  0
 23 20  1  0
 23 24  1  0
 24 22  2  0
 25 26  1  0
 26 27  2  0
 28 31  1  0
 28 27  1  0
 29 28  2  0
 30 29  1  0
 30 25  2  0
 31 32  1  0
 32 33  1  0
 33 34  2  0
 35 34  1  0
 35 39  1  0
 36 35  2  0
 37 32  2  0
 37 36  1  0
 38 37  1  0
 40 41  1  0
 41 44  1  0
 41 43  1  0
 42 40  2  0
 45 46  1  0
 45 20  1  0
 47 45  1  0
 48  2  1  0
 48 49  1  0
 50 51  1  0
 50 49  1  0
 52 63  2  0
 53 51  1  0
 53 58  1  0
 54 62  1  0
 54 64  1  0
 55 61  1  0
 55 57  1  0
 56 62  1  0
 57 58  2  0
 57 56  1  0
 59 53  2  0
 60 59  1  0
 60 55  2  0
 61 54  1  0
 62 52  1  0
 64 66  2  0
 65 64  1  0
 67 65  1  0
 68 77  2  0
 68 73  1  0
 69 65  1  0
 69 73  1  0
 70 69  1  0
 71 72  1  0
 71 70  1  0
 72 68  1  0
 73 74  2  0
 74 75  1  0
 76 75  2  0
 77 76  1  0
 78 52  1  0
 78 79  1  0
 78 88  1  0
 79 82  1  0
 80 84  1  0
 80 79  1  0
 81 80  2  0
 84 83  1  0
 86 84  1  0
 86 87  1  0
 86 85  1  0
 88 91  1  1
 88 89  1  0
 90 88  1  0
M  ISO  4   8 100  12 100  50 101  51 101
M  END
>  <TORSDO>  (28) 
F 21

>  <SCORE>  (28) 
-14.181

>  <name>  (28) 
27

>  <ligand_id>  (28) 
27

>  <original_smiles>  (28) 
[H]c1c([H])c(C(=O)N2C([H])([H])C([H])([H])C([H])([H])C([H])(n3nc(-c4c([H])c([H])c(Oc5c([H])c([H])c(F)c([H])c5F)c([H])c4[H])c(C(=O)N([H])[H])c3N([H])[H])C2([H])[H])c(C([H])([H])[N+]([H])(C([H])([H])[H])C([H])([H])C([H])([H])C([H])([H])Oc2c([H])c([H])c3c(c2[H])C([H])([H])N(C(=O)C([H])(N([H])C(=O)C([H])(N([H])C([H])([H])[H])C([H])([H])[H])C(C([H])([H])[H])(C([H])([H])[H])C([H])([H])[H])C([H])(C(=O)N([H])C2([H])c4c([H])c([H])c([H])c([H])c4C([H])([H])C([H])([H])C2([H])[H])C3([H])[H])c(C([H])([H])[H])c1[H]

>  <smiles>  (28) 
[H]c1c([H])c(C(=O)N2C([H])([H])C([H])([H])C([H])([H])C([H])(n3nc(-c4c([H])c([H])c(Oc5c([H])c([H])c(F)c([H])c5F)c([H])c4[H])c(C(=O)N([H])[H])c3N([H])[H])C2([H])[H])c(C([H])([H])[N+]([H])(C([H])([H])[H])C([H])([H])C([H])([H])C([H])([H])Oc2c([H])c([H])c3c(c2[H])C([H])([H])N(C(=O)C([H])(N([H])C(=O)C([H])(N([H])C([H])([H])[H])C([H])([H])[H])C(C([H])([H])[H])(C([H])([H])[H])C([H])([H])[H])C([H])(C(=O)N([H])C2([H])c4c([H])c([H])c([H])c([H])c4C([H])([H])C([H])([H])C2([H])[H])C3([H])[H])c(C([H])([H])[H])c1[H]

$$$$
28:0:0
     RDKit          3D

 92100  0  0  1  0  0  0  0  0999 V2000
  -28.6610  -23.0900   17.6260 C   0  0  0  0  0  3  0  0  0  0  0  0
  -28.4060  -24.1940   18.4600 C   0  0  0  0  0  3  0  0  0  0  0  0
  -29.1990  -21.9020   18.1570 C   0  0  0  0  0  3  0  0  0  0  0  0
  -29.2230  -22.9130   20.3690 C   0  0  0  0  0  3  0  0  0  0  0  0
  -28.6810  -24.1240   19.8390 C   0  0  0  0  0  0  0  0  0  0  0  0
  -29.5020  -21.7890   19.5320 C   0  0  0  0  0  0  0  0  0  0  0  0
  -31.4840  -20.7790   20.7940 C   0  0  0  0  0  1  0  0  0  0  0  0
  -30.1850  -20.4850   20.0270 C   0  0  0  0  0  3  0  0  0  0  0  0
  -29.2880  -19.6000   20.8160 N   0  0  0  0  0  4  0  0  0  0  0  0
  -29.4970  -19.6940   21.7960 H   0  0  0  0  0  0  0  0  0  0  0  0
  -28.3660  -19.9870   20.6860 H   0  0  0  0  0  0  0  0  0  0  0  0
  -29.1710  -18.1510   20.4440 C   0  0  0  0  0  2  0  0  0  0  0  0
  -30.3410  -17.1890   20.8580 C   0  0  0  0  0  2  0  0  0  0  0  0
  -29.8800  -15.7100   21.1560 C   0  0  0  0  0  2  0  0  0  0  0  0
  -30.6290  -14.5170   20.4810 C   0  0  0  0  0  0  0  0  0  0  0  0
  -30.3750  -12.3390   19.3150 C   0  0  0  0  0  2  0  0  0  0  0  0
  -29.4280  -12.5310   18.1100 C   0  0  0  0  0  2  0  0  0  0  0  0
  -27.9530  -12.3840   18.5370 C   0  0  0  0  0  2  0  0  0  0  0  0
  -27.6130  -13.2240   19.7970 C   0  0  0  0  0  3  0  0  0  0  0  0
  -28.6690  -13.0000   20.9050 C   0  0  0  0  0  2  0  0  0  0  0  0
  -29.9900  -13.3180   20.3440 N   0  0  0  0  0  0  0  0  0  0  0  0
  -31.7510  -14.7100   20.0010 O   0  0  0  0  0  0  0  0  0  0  0  0
  -25.2140  -13.8470   20.4930 C   0  0  0  0  0  0  0  0  0  0  0  0
  -24.1430  -13.0830   20.8650 C   0  0  0  0  0  0  0  0  0  0  0  0
  -24.5980  -11.7290   20.8480 C   0  0  0  0  0  0  0  0  0  0  0  0
  -26.2570  -12.9600   20.2730 N   0  0  0  0  0  0  0  0  0  0  0  0
  -25.8900  -11.6820   20.5430 N   0  0  0  0  0  0  0  0  0  0  0  0
  -23.8670  -10.4720   21.0460 C   0  0  0  0  0  0  0  0  0  0  0  0
  -24.3070   -9.4990   21.9710 C   0  0  0  0  0  3  0  0  0  0  0  0
  -23.5780   -8.3040   22.1560 C   0  0  0  0  0  3  0  0  0  0  0  0
  -22.3950   -8.0750   21.4150 C   0  0  0  0  0  0  0  0  0  0  0  0
  -21.9720   -9.0360   20.4790 C   0  0  0  0  0  3  0  0  0  0  0  0
  -22.7030  -10.2210   20.2920 C   0  0  0  0  0  3  0  0  0  0  0  0
  -21.6360   -6.9330   21.5100 O   0  0  0  0  0  0  0  0  0  0  0  0
  -21.6140   -6.1760   22.6540 C   0  0  0  0  0  0  0  0  0  0  0  0
  -21.2410   -6.7220   23.9020 C   0  0  0  0  0  3  0  0  0  0  0  0
  -21.1660   -5.8930   25.0390 C   0  0  0  0  0  3  0  0  0  0  0  0
  -21.4540   -4.5190   24.9300 C   0  0  0  0  0  0  0  0  0  0  0  0
  -21.8190   -3.9730   23.6880 C   0  0  0  0  0  3  0  0  0  0  0  0
  -21.8980   -4.8000   22.5530 C   0  0  0  0  0  0  0  0  0  0  0  0
  -22.2310   -4.2630   21.3540 F   0  0  0  0  0  0  0  0  0  0  0  0
  -21.3730   -3.7210   26.0200 F   0  0  0  0  0  0  0  0  0  0  0  0
  -22.7450  -13.5660   21.1300 C   0  0  0  0  0  0  0  0  0  0  0  0
  -22.0120  -12.8820   22.0020 N   0  0  0  0  0  0  0  0  0  0  0  0
  -22.3120  -14.5900   20.6010 O   0  0  0  0  0  0  0  0  0  0  0  0
  -22.3740  -12.0540   22.4500 H   0  0  0  0  0  0  0  0  0  0  0  0
  -21.0760  -13.1900   22.2220 H   0  0  0  0  0  0  0  0  0  0  0  0
  -25.3850  -15.2150   20.3020 N   0  0  0  0  0  0  0  0  0  0  0  0
  -24.6180  -15.8730   20.3940 H   0  0  0  0  0  0  0  0  0  0  0  0
  -26.2330  -15.6410   19.9490 H   0  0  0  0  0  0  0  0  0  0  0  0
  -28.3320  -25.3260   20.7420 C   0  0  0  0  0  2  0  0  0  0  0  0
  -28.4000  -26.6380   20.1220 O   0  0  0  0  0  0  0  0  0  0  0  0
  -24.6310  -31.8820   23.2200 C   0  0  0  0  0  0  0  0  0  0  0  0
  -27.2410  -27.3960   20.1420 C   0  0  0  0  0  0  0  0  0  0  0  0
  -23.4110  -30.4730   21.5980 C   0  0  0  0  0  3  0  0  0  0  0  0
  -24.8510  -28.9240   20.1650 C   0  0  0  0  0  0  0  0  0  0  0  0
  -25.9390  -30.8180   21.3800 C   0  0  0  0  0  2  0  0  0  0  0  0
  -26.0180  -29.4450   20.7390 C   0  0  0  0  0  0  0  0  0  0  0  0
  -27.2180  -28.6930   20.7140 C   0  0  0  0  0  3  0  0  0  0  0  0
  -26.0550  -26.8950   19.5630 C   0  0  0  0  0  3  0  0  0  0  0  0
  -24.8670  -27.6500   19.5690 C   0  0  0  0  0  3  0  0  0  0  0  0
  -23.6090  -29.7880   20.2190 C   0  0  0  0  0  2  0  0  0  0  0  0
  -24.6800  -31.0700   22.1250 N   0  0  0  0  0  0  0  0  0  0  0  0
  -23.5510  -32.1810   23.7450 O   0  0  0  0  0  0  0  0  0  0  0  0
  -22.7640  -29.4570   22.5670 C   0  0  0  0  0  0  0  0  0  0  0  0
  -21.4380  -29.2760   22.4500 N   0  0  0  0  0  0  0  0  0  0  0  0
  -23.4520  -28.8310   23.3800 O   0  0  0  0  0  0  0  0  0  0  0  0
  -20.9450  -29.8320   21.7680 H   0  0  0  0  0  0  0  0  0  0  0  0
  -18.0670  -28.0770   22.9660 C   0  0  0  0  0  0  0  0  0  0  0  0
  -20.6250  -28.3390   23.2260 C   0  0  0  0  0  3  0  0  0  0  0  0
  -20.7260  -26.9060   22.6530 C   0  0  0  0  0  2  0  0  0  0  0  0
  -19.6190  -26.5790   21.6440 C   0  0  0  0  0  2  0  0  0  0  0  0
  -18.2400  -26.7260   22.2940 C   0  0  0  0  0  2  0  0  0  0  0  0
  -19.1870  -28.8410   23.3890 C   0  0  0  0  0  0  0  0  0  0  0  0
  -18.9690  -30.1060   23.9780 C   0  0  0  0  0  3  0  0  0  0  0  0
  -17.6660  -30.6070   24.1470 C   0  0  0  0  0  3  0  0  0  0  0  0
  -16.5600  -29.8410   23.7410 C   0  0  0  0  0  3  0  0  0  0  0  0
  -16.7620  -28.5780   23.1560 C   0  0  0  0  0  3  0  0  0  0  0  0
  -25.9250  -32.5020   23.8380 C   0  0  0  0  0  3  0  0  0  0  0  0
  -25.6230  -33.8960   24.1850 N   0  0  0  0  0  0  0  0  0  0  0  0
  -25.9400  -34.9550   23.4270 C   0  0  0  0  0  0  0  0  0  0  0  0
  -26.5920  -34.8580   22.3840 O   0  0  0  0  0  0  0  0  0  0  0  0
  -25.0420  -34.0450   24.9970 H   0  0  0  0  0  0  0  0  0  0  0  0
  -24.1980  -36.7430   23.1160 C   0  0  0  0  0  1  0  0  0  0  0  0
  -25.4560  -36.3390   23.9010 C   0  0  0  0  0  3  0  0  0  0  0  0
  -27.6060  -37.2240   24.6910 C   0  0  0  0  0  1  0  0  0  0  0  0
  -26.4830  -37.3960   23.7730 N   0  0  0  0  0  0  0  0  0  0  0  0
  -26.0780  -38.3140   23.9340 H   0  0  0  0  0  0  0  0  0  0  0  0
  -26.4570  -31.7180   25.1000 C   0  0  1  0  0  0  0  0  0  0  0  0
  -25.3780  -31.4710   26.1800 C   0  0  0  0  0  1  0  0  0  0  0  0
  -27.0340  -30.3430   24.6870 C   0  0  0  0  0  1  0  0  0  0  0  0
  -27.6180  -32.5040   25.7540 C   0  0  0  0  0  1  0  0  0  0  0  0
  1  3  2  0
  1  2  1  0
  2  5  2  0
  3  6  1  0
  5  4  1  0
  5 51  1  0
  6  8  1  0
  6  4  2  0
  8  7  1  0
  8  9  1  0
  9 10  1  0
 11  9  1  0
 12  9  1  0
 12 13  1  0
 13 14  1  0
 15 14  1  0
 16 21  1  0
 17 18  1  0
 17 16  1  0
 19 18  1  0
 19 26  1  0
 19 20  1  0
 21 15  1  0
 21 20  1  0
 22 15  2  0
 23 24  2  0
 24 43  1  0
 25 24  1  0
 25 28  1  0
 26 23  1  0
 26 27  1  0
 27 25  2  0
 28 29  1  0
 29 30  2  0
 31 34  1  0
 31 30  1  0
 32 31  2  0
 33 32  1  0
 33 28  2  0
 34 35  1  0
 35 36  1  0
 36 37  2  0
 38 37  1  0
 38 42  1  0
 39 38  2  0
 40 35  2  0
 40 39  1  0
 41 40  1  0
 43 44  1  0
 44 47  1  0
 44 46  1  0
 45 43  2  0
 48 49  1  0
 48 23  1  0
 50 48  1  0
 52 54  1  0
 52 51  1  0
 53 64  2  0
 54 59  1  0
 55 63  1  0
 55 65  1  0
 56 62  1  0
 56 58  1  0
 57 63  1  0
 58 57  1  0
 59 58  2  0
 60 61  1  0
 60 54  2  0
 61 56  2  0
 62 55  1  0
 63 53  1  0
 65 67  2  0
 66 65  1  0
 68 66  1  0
 69 78  2  0
 69 74  1  0
 70 66  1  0
 70 74  1  0
 71 70  1  0
 72 73  1  0
 72 71  1  0
 73 69  1  0
 74 75  2  0
 75 76  1  0
 77 76  2  0
 78 77  1  0
 79 53  1  0
 79 80  1  0
 79 89  1  0
 80 83  1  0
 81 85  1  0
 81 80  1  0
 82 81  2  0
 85 84  1  0
 87 85  1  0
 87 88  1  0
 87 86  1  0
 89 92  1  1
 89 90  1  0
 91 89  1  0
M  ISO  4  14 100  15 100  51 101  52 101
M  END
>  <TORSDO>  (29) 
F 22

>  <SCORE>  (29) 
-13.247

>  <name>  (29) 
28

>  <ligand_id>  (29) 
28

>  <original_smiles>  (29) 
[H]c1c([H])c([H])c2c(c1[H])C([H])([H])C([H])([H])C([H])([H])C2([H])N([H])C(=O)C1([H])N(C(=O)C([H])(N([H])C(=O)C([H])(N([H])C([H])([H])[H])C([H])([H])[H])C(C([H])([H])[H])(C([H])([H])[H])C([H])([H])[H])C([H])([H])c2c([H])c(OC([H])([H])c3c([H])c([H])c([H])c(C([H])(C([H])([H])[H])[N+]([H])([H])C([H])([H])C([H])([H])C([H])([H])C(=O)N4C([H])([H])C([H])([H])C([H])([H])C([H])(n5nc(-c6c([H])c([H])c(Oc7c([H])c([H])c(F)c([H])c7F)c([H])c6[H])c(C(=O)N([H])[H])c5N([H])[H])C4([H])[H])c3[H])c([H])c([H])c2C1([H])[H]

>  <smiles>  (29) 
[H]c1c([H])c([H])c2c(c1[H])C([H])([H])C([H])([H])C([H])([H])C2([H])N([H])C(=O)C1([H])N(C(=O)C([H])(N([H])C(=O)C([H])(N([H])C([H])([H])[H])C([H])([H])[H])C(C([H])([H])[H])(C([H])([H])[H])C([H])([H])[H])C([H])([H])c2c([H])c(OC([H])([H])c3c([H])c([H])c([H])c(C([H])(C([H])([H])[H])[N+]([H])([H])C([H])([H])C([H])([H])C([H])([H])C(=O)N4C([H])([H])C([H])([H])C([H])([H])C([H])(n5nc(-c6c([H])c([H])c(Oc7c([H])c([H])c(F)c([H])c7F)c([H])c6[H])c(C(=O)N([H])[H])c5N([H])[H])C4([H])[H])c3[H])c([H])c([H])c2C1([H])[H]

$$$$
29:0:0
     RDKit          3D

 89 97  0  0  1  0  0  0  0  0999 V2000
  -30.4890  -19.5180   20.7510 C   0  0  0  0  0  3  0  0  0  0  0  0
  -29.9010  -18.3420   20.4850 C   0  0  0  0  0  0  0  0  0  0  0  0
  -29.5190  -20.6120   20.6750 C   0  0  0  0  0  0  0  0  0  0  0  0
  -28.1550  -19.9900   20.3930 C   0  0  0  0  0  2  0  0  0  0  0  0
  -28.4100  -18.4690   20.2440 C   0  0  0  0  0  3  0  0  0  0  0  0
  -27.9730  -17.9250   18.8730 C   0  0  0  0  0  1  0  0  0  0  0  0
  -29.8170  -21.8560   20.7720 N   0  0  0  0  0  0  0  0  0  0  0  0
  -30.6350  -17.0230   20.2640 C   0  0  0  0  0  2  0  0  0  0  0  0
  -30.0800  -15.7550   20.9770 C   0  0  0  0  0  2  0  0  0  0  0  0
  -30.7430  -14.4770   20.4070 C   0  0  0  0  0  0  0  0  0  0  0  0
  -30.3970  -12.3390   19.2330 C   0  0  0  0  0  2  0  0  0  0  0  0
  -29.4640  -12.5840   18.0290 C   0  0  0  0  0  2  0  0  0  0  0  0
  -27.9880  -12.4580   18.4540 C   0  0  0  0  0  2  0  0  0  0  0  0
  -27.6590  -13.2810   19.7280 C   0  0  0  0  0  3  0  0  0  0  0  0
  -28.7140  -13.0480   20.8350 C   0  0  0  0  0  2  0  0  0  0  0  0
  -30.0430  -13.3180   20.2720 N   0  0  0  0  0  0  0  0  0  0  0  0
  -31.8820  -14.5960   19.9480 O   0  0  0  0  0  0  0  0  0  0  0  0
  -25.2570  -13.8930   20.4160 C   0  0  0  0  0  0  0  0  0  0  0  0
  -24.1870  -13.1240   20.7870 C   0  0  0  0  0  0  0  0  0  0  0  0
  -24.6500  -11.7730   20.7790 C   0  0  0  0  0  0  0  0  0  0  0  0
  -26.3050  -13.0110   20.2040 N   0  0  0  0  0  0  0  0  0  0  0  0
  -25.9420  -11.7310   20.4810 N   0  0  0  0  0  0  0  0  0  0  0  0
  -23.9240  -10.5130   20.9810 C   0  0  0  0  0  0  0  0  0  0  0  0
  -24.3570   -9.5540   21.9250 C   0  0  0  0  0  3  0  0  0  0  0  0
  -23.6310   -8.3580   22.1150 C   0  0  0  0  0  3  0  0  0  0  0  0
  -22.4590   -8.1120   21.3600 C   0  0  0  0  0  0  0  0  0  0  0  0
  -22.0460   -9.0580   20.4070 C   0  0  0  0  0  3  0  0  0  0  0  0
  -22.7720  -10.2460   20.2150 C   0  0  0  0  0  3  0  0  0  0  0  0
  -21.7060   -6.9670   21.4590 O   0  0  0  0  0  0  0  0  0  0  0  0
  -21.6590   -6.2330   22.6170 C   0  0  0  0  0  0  0  0  0  0  0  0
  -21.2350   -6.7950   23.8400 C   0  0  0  0  0  3  0  0  0  0  0  0
  -21.1360   -5.9870   24.9910 C   0  0  0  0  0  3  0  0  0  0  0  0
  -21.4520   -4.6180   24.9180 C   0  0  0  0  0  0  0  0  0  0  0  0
  -21.8710   -4.0540   23.7000 C   0  0  0  0  0  3  0  0  0  0  0  0
  -21.9710   -4.8600   22.5520 C   0  0  0  0  0  0  0  0  0  0  0  0
  -22.3550   -4.3070   21.3760 F   0  0  0  0  0  0  0  0  0  0  0  0
  -21.3510   -3.8400   26.0220 F   0  0  0  0  0  0  0  0  0  0  0  0
  -22.7870  -13.6030   21.0430 C   0  0  0  0  0  0  0  0  0  0  0  0
  -22.0540  -12.9180   21.9130 N   0  0  0  0  0  0  0  0  0  0  0  0
  -22.3510  -14.6210   20.5080 O   0  0  0  0  0  0  0  0  0  0  0  0
  -22.4190  -12.0930   22.3690 H   0  0  0  0  0  0  0  0  0  0  0  0
  -21.1150  -13.2210   22.1280 H   0  0  0  0  0  0  0  0  0  0  0  0
  -25.4220  -15.2610   20.2210 N   0  0  0  0  0  0  0  0  0  0  0  0
  -24.6560  -15.9180   20.3200 H   0  0  0  0  0  0  0  0  0  0  0  0
  -26.2800  -15.6980   19.9090 H   0  0  0  0  0  0  0  0  0  0  0  0
  -28.7630  -22.8370   20.5330 C   0  0  0  0  0  2  0  0  0  0  0  0
  -29.2730  -24.3020   20.5530 C   0  0  0  0  0  2  0  0  0  0  0  0
  -28.1630  -25.2450   20.0430 C   0  0  0  0  0  2  0  0  0  0  0  0
  -28.3770  -26.6630   20.1950 O   0  0  0  0  0  0  0  0  0  0  0  0
  -24.6040  -31.8870   23.2500 C   0  0  0  0  0  0  0  0  0  0  0  0
  -27.2270  -27.4350   20.1470 C   0  0  0  0  0  0  0  0  0  0  0  0
  -23.3940  -30.4920   21.6100 C   0  0  0  0  0  3  0  0  0  0  0  0
  -24.8420  -28.9690   20.1680 C   0  0  0  0  0  0  0  0  0  0  0  0
  -25.9250  -30.8380   21.4170 C   0  0  0  0  0  2  0  0  0  0  0  0
  -26.0050  -29.4740   20.7620 C   0  0  0  0  0  0  0  0  0  0  0  0
  -27.2000  -28.7160   20.7470 C   0  0  0  0  0  3  0  0  0  0  0  0
  -26.0410  -26.9620   19.5300 C   0  0  0  0  0  3  0  0  0  0  0  0
  -24.8560  -27.7130   19.5480 C   0  0  0  0  0  3  0  0  0  0  0  0
  -23.6010  -29.8290   20.2240 C   0  0  0  0  0  2  0  0  0  0  0  0
  -24.6600  -31.0830   22.1520 N   0  0  0  0  0  0  0  0  0  0  0  0
  -23.5190  -32.1820   23.7700 O   0  0  0  0  0  0  0  0  0  0  0  0
  -22.7420  -29.4630   22.5610 C   0  0  0  0  0  0  0  0  0  0  0  0
  -21.4160  -29.2850   22.4350 N   0  0  0  0  0  0  0  0  0  0  0  0
  -23.4240  -28.8290   23.3710 O   0  0  0  0  0  0  0  0  0  0  0  0
  -20.9260  -29.8480   21.7550 H   0  0  0  0  0  0  0  0  0  0  0  0
  -18.0370  -28.1040   22.9370 C   0  0  0  0  0  0  0  0  0  0  0  0
  -20.5970  -28.3430   23.2010 C   0  0  0  0  0  3  0  0  0  0  0  0
  -20.6880  -26.9180   22.6100 C   0  0  0  0  0  2  0  0  0  0  0  0
  -19.5800  -26.6120   21.5970 C   0  0  0  0  0  2  0  0  0  0  0  0
  -18.2020  -26.7600   22.2480 C   0  0  0  0  0  2  0  0  0  0  0  0
  -19.1630  -28.8550   23.3700 C   0  0  0  0  0  0  0  0  0  0  0  0
  -18.9540  -30.1140   23.9730 C   0  0  0  0  0  3  0  0  0  0  0  0
  -17.6550  -30.6230   24.1470 C   0  0  0  0  0  3  0  0  0  0  0  0
  -16.5430  -29.8690   23.7320 C   0  0  0  0  0  3  0  0  0  0  0  0
  -16.7360  -28.6120   23.1320 C   0  0  0  0  0  3  0  0  0  0  0  0
  -25.8930  -32.5020   23.8800 C   0  0  0  0  0  3  0  0  0  0  0  0
  -25.5940  -33.9020   24.2130 N   0  0  0  0  0  0  0  0  0  0  0  0
  -25.9180  -34.9500   23.4450 C   0  0  0  0  0  0  0  0  0  0  0  0
  -26.5750  -34.8420   22.4060 O   0  0  0  0  0  0  0  0  0  0  0  0
  -25.0090  -34.0590   25.0200 H   0  0  0  0  0  0  0  0  0  0  0  0
  -24.1840  -36.7390   23.1080 C   0  0  0  0  0  1  0  0  0  0  0  0
  -25.4360  -36.3390   23.9030 C   0  0  0  0  0  3  0  0  0  0  0  0
  -27.5810  -37.2280   24.7010 C   0  0  0  0  0  1  0  0  0  0  0  0
  -26.4680  -37.3920   23.7710 N   0  0  0  0  0  0  0  0  0  0  0  0
  -26.0620  -38.3120   23.9200 H   0  0  0  0  0  0  0  0  0  0  0  0
  -26.4030  -31.7230   25.1530 C   0  0  1  0  0  0  0  0  0  0  0  0
  -25.3070  -31.4870   26.2170 C   0  0  0  0  0  1  0  0  0  0  0  0
  -26.9820  -30.3440   24.7570 C   0  0  0  0  0  1  0  0  0  0  0  0
  -27.5550  -32.5090   25.8210 C   0  0  0  0  0  1  0  0  0  0  0  0
  2  1  2  0
  3  1  1  0
  3  7  2  0
  4  3  1  0
  5  6  1  0
  5  4  1  0
  5  2  1  0
  8  2  1  0
  8  9  1  0
 10  9  1  0
 11 16  1  0
 12 13  1  0
 12 11  1  0
 14 13  1  0
 14 21  1  0
 14 15  1  0
 16 10  1  0
 16 15  1  0
 17 10  2  0
 18 19  2  0
 19 38  1  0
 20 19  1  0
 20 23  1  0
 21 18  1  0
 21 22  1  0
 22 20  2  0
 23 24  1  0
 24 25  2  0
 26 29  1  0
 26 25  1  0
 27 26  2  0
 28 27  1  0
 28 23  2  0
 29 30  1  0
 30 31  1  0
 31 32  2  0
 33 32  1  0
 33 37  1  0
 34 33  2  0
 35 30  2  0
 35 34  1  0
 36 35  1  0
 38 39  1  0
 39 42  1  0
 39 41  1  0
 40 38  2  0
 43 44  1  0
 43 18  1  0
 45 43  1  0
 46 47  1  0
 46  7  1  0
 48 49  1  0
 48 47  1  0
 50 61  2  0
 51 49  1  0
 51 56  1  0
 52 60  1  0
 52 62  1  0
 53 59  1  0
 53 55  1  0
 54 60  1  0
 55 54  1  0
 56 55  2  0
 57 58  1  0
 57 51  2  0
 58 53  2  0
 59 52  1  0
 60 50  1  0
 62 64  2  0
 63 62  1  0
 65 63  1  0
 66 75  2  0
 66 71  1  0
 67 63  1  0
 67 71  1  0
 68 67  1  0
 69 70  1  0
 69 68  1  0
 70 66  1  0
 71 72  2  0
 72 73  1  0
 74 73  2  0
 75 74  1  0
 76 50  1  0
 76 77  1  0
 76 86  1  0
 77 80  1  0
 78 82  1  0
 78 77  1  0
 79 78  2  0
 82 81  1  0
 84 82  1  0
 84 85  1  0
 84 83  1  0
 86 89  1  1
 86 87  1  0
 88 86  1  0
M  ISO  4   9 100  10 100  48 101  49 101
M  END
>  <TORSDO>  (30) 
F 21

>  <SCORE>  (30) 
-13.751

>  <name>  (30) 
29

>  <ligand_id>  (30) 
29

>  <original_smiles>  (30) 
[H]C1=C(C([H])([H])C([H])([H])C(=O)N2C([H])([H])C([H])([H])C([H])([H])C([H])(n3nc(-c4c([H])c([H])c(Oc5c([H])c([H])c(F)c([H])c5F)c([H])c4[H])c(C(=O)N([H])[H])c3N([H])[H])C2([H])[H])C([H])(C([H])([H])[H])C([H])([H])C1=NC([H])([H])C([H])([H])C([H])([H])Oc1c([H])c([H])c2c(c1[H])C([H])([H])N(C(=O)C([H])(N([H])C(=O)C([H])(N([H])C([H])([H])[H])C([H])([H])[H])C(C([H])([H])[H])(C([H])([H])[H])C([H])([H])[H])C([H])(C(=O)N([H])C1([H])c3c([H])c([H])c([H])c([H])c3C([H])([H])C([H])([H])C1([H])[H])C2([H])[H]

>  <smiles>  (30) 
[H]C1=C(C([H])([H])C([H])([H])C(=O)N2C([H])([H])C([H])([H])C([H])([H])C([H])(n3nc(-c4c([H])c([H])c(Oc5c([H])c([H])c(F)c([H])c5F)c([H])c4[H])c(C(=O)N([H])[H])c3N([H])[H])C2([H])[H])C([H])(C([H])([H])[H])C([H])([H])C1=NC([H])([H])C([H])([H])C([H])([H])Oc1c([H])c([H])c2c(c1[H])C([H])([H])N(C(=O)C([H])(N([H])C(=O)C([H])(N([H])C([H])([H])[H])C([H])([H])[H])C(C([H])([H])[H])(C([H])([H])[H])C([H])([H])[H])C([H])(C(=O)N([H])C1([H])c3c([H])c([H])c([H])c([H])c3C([H])([H])C([H])([H])C1([H])[H])C2([H])[H]

$$$$
30:0:0
     RDKit          3D

 97105  0  0  1  0  0  0  0  0999 V2000
  -29.2240  -20.7910   18.1540 C   0  0  0  0  0  3  0  0  0  0  0  0
  -29.2370  -19.4180   18.4520 C   0  0  0  0  0  3  0  0  0  0  0  0
  -30.8850  -21.1740   19.8800 C   0  0  0  0  0  3  0  0  0  0  0  0
  -30.0400  -21.6860   18.8700 C   0  0  0  0  0  0  0  0  0  0  0  0
  -30.0620  -18.8860   19.4750 C   0  0  0  0  0  0  0  0  0  0  0  0
  -30.9060  -19.7910   20.1790 C   0  0  0  0  0  0  0  0  0  0  0  0
  -30.0520  -23.1400   18.4850 C   0  0  0  0  0  0  0  0  0  0  0  0
  -30.2020  -24.0340   19.4710 N   0  0  0  0  0  0  0  0  0  0  0  0
  -29.8700  -23.4750   17.3120 O   0  0  0  0  0  0  0  0  0  0  0  0
  -30.3020  -23.6930   20.4170 H   0  0  0  0  0  0  0  0  0  0  0  0
  -30.2190  -25.4820   19.2610 C   0  0  0  0  0  2  0  0  0  0  0  0
  -28.8070  -26.0650   19.0260 C   0  0  0  0  0  2  0  0  0  0  0  0
  -28.4220  -26.7920   20.1860 O   0  0  0  0  0  0  0  0  0  0  0  0
  -24.5750  -31.8980   23.2460 C   0  0  0  0  0  0  0  0  0  0  0  0
  -27.2280  -27.4730   20.1560 C   0  0  0  0  0  0  0  0  0  0  0  0
  -23.3640  -30.4850   21.6130 C   0  0  0  0  0  3  0  0  0  0  0  0
  -24.8150  -28.9450   20.1860 C   0  0  0  0  0  0  0  0  0  0  0  0
  -25.8850  -30.8480   21.4110 C   0  0  0  0  0  2  0  0  0  0  0  0
  -25.9680  -29.4760   20.7760 C   0  0  0  0  0  0  0  0  0  0  0  0
  -27.1700  -28.7390   20.7730 C   0  0  0  0  0  3  0  0  0  0  0  0
  -26.0560  -26.9430   19.5670 C   0  0  0  0  0  3  0  0  0  0  0  0
  -24.8520  -27.6730   19.5860 C   0  0  0  0  0  3  0  0  0  0  0  0
  -23.5700  -29.8000   20.2350 C   0  0  0  0  0  2  0  0  0  0  0  0
  -24.6260  -31.0880   22.1510 N   0  0  0  0  0  0  0  0  0  0  0  0
  -23.4910  -32.1940   23.7690 O   0  0  0  0  0  0  0  0  0  0  0  0
  -22.7170  -29.4650   22.5790 C   0  0  0  0  0  0  0  0  0  0  0  0
  -21.3920  -29.2850   22.4580 N   0  0  0  0  0  0  0  0  0  0  0  0
  -23.4030  -28.8400   23.3920 O   0  0  0  0  0  0  0  0  0  0  0  0
  -20.8990  -29.8410   21.7730 H   0  0  0  0  0  0  0  0  0  0  0  0
  -18.0180  -28.1000   22.9670 C   0  0  0  0  0  0  0  0  0  0  0  0
  -20.5770  -28.3480   23.2310 C   0  0  0  0  0  3  0  0  0  0  0  0
  -20.6730  -26.9180   22.6520 C   0  0  0  0  0  2  0  0  0  0  0  0
  -19.5670  -26.6000   21.6410 C   0  0  0  0  0  2  0  0  0  0  0  0
  -18.1880  -26.7500   22.2900 C   0  0  0  0  0  2  0  0  0  0  0  0
  -19.1410  -28.8560   23.3950 C   0  0  0  0  0  0  0  0  0  0  0  0
  -18.9290  -30.1210   23.9860 C   0  0  0  0  0  3  0  0  0  0  0  0
  -17.6270  -30.6290   24.1550 C   0  0  0  0  0  3  0  0  0  0  0  0
  -16.5180  -29.8670   23.7450 C   0  0  0  0  0  3  0  0  0  0  0  0
  -16.7150  -28.6050   23.1560 C   0  0  0  0  0  3  0  0  0  0  0  0
  -25.8670  -32.5180   23.8680 C   0  0  0  0  0  3  0  0  0  0  0  0
  -25.5660  -33.9160   24.2030 N   0  0  0  0  0  0  0  0  0  0  0  0
  -25.8900  -34.9660   23.4390 C   0  0  0  0  0  0  0  0  0  0  0  0
  -26.5490  -34.8610   22.4010 O   0  0  0  0  0  0  0  0  0  0  0  0
  -24.9780  -34.0710   25.0090 H   0  0  0  0  0  0  0  0  0  0  0  0
  -24.1560  -36.7550   23.0970 C   0  0  0  0  0  1  0  0  0  0  0  0
  -25.4050  -36.3540   23.8980 C   0  0  0  0  0  3  0  0  0  0  0  0
  -27.5460  -37.2400   24.7090 C   0  0  0  0  0  1  0  0  0  0  0  0
  -26.4350  -37.4080   23.7760 N   0  0  0  0  0  0  0  0  0  0  0  0
  -26.0290  -38.3270   23.9290 H   0  0  0  0  0  0  0  0  0  0  0  0
  -26.3900  -31.7400   25.1380 C   0  0  1  0  0  0  0  0  0  0  0  0
  -25.3020  -31.4990   26.2090 C   0  0  0  0  0  1  0  0  0  0  0  0
  -26.9720  -30.3650   24.7350 C   0  0  0  0  0  1  0  0  0  0  0  0
  -27.5450  -32.5310   25.7980 C   0  0  0  0  0  1  0  0  0  0  0  0
  -31.7790  -19.3710   21.1370 O   0  0  0  0  0  0  0  0  0  0  0  0
  -32.3300  -20.0680   21.4760 H   0  0  0  0  0  0  0  0  0  0  0  0
  -30.0240  -17.3560   19.6920 C   0  0  0  0  0  3  0  0  0  0  0  0
  -28.7470  -16.8170   19.3670 O   0  0  0  0  0  0  0  0  0  0  0  0
  -28.1320  -17.2140   19.9720 H   0  0  0  0  0  0  0  0  0  0  0  0
  -30.3760  -16.8000   21.1050 C   0  0  0  0  0  2  0  0  0  0  0  0
  -30.6870  -14.4060   20.5410 C   0  0  0  0  0  0  0  0  0  0  0  0
  -30.3540  -12.2900   19.3280 C   0  0  0  0  0  2  0  0  0  0  0  0
  -29.4260  -12.5470   18.1240 C   0  0  0  0  0  2  0  0  0  0  0  0
  -27.9460  -12.4210   18.5360 C   0  0  0  0  0  2  0  0  0  0  0  0
  -27.6120  -13.2320   19.8150 C   0  0  0  0  0  3  0  0  0  0  0  0
  -28.6530  -12.9630   20.9290 C   0  0  0  0  0  2  0  0  0  0  0  0
  -29.9930  -13.2480   20.3820 N   0  0  0  0  0  0  0  0  0  0  0  0
  -31.7780  -14.6230   20.0120 O   0  0  0  0  0  0  0  0  0  0  0  0
  -30.0490  -15.3710   21.2120 N   0  0  0  0  0  0  0  0  0  0  0  0
  -29.1430  -15.1340   21.5870 H   0  0  0  0  0  0  0  0  0  0  0  0
  -25.2010  -13.8540   20.4680 C   0  0  0  0  0  0  0  0  0  0  0  0
  -24.1240  -13.0900   20.8310 C   0  0  0  0  0  0  0  0  0  0  0  0
  -24.5810  -11.7360   20.8200 C   0  0  0  0  0  0  0  0  0  0  0  0
  -26.2480  -12.9680   20.2700 N   0  0  0  0  0  0  0  0  0  0  0  0
  -25.8760  -11.6890   20.5340 N   0  0  0  0  0  0  0  0  0  0  0  0
  -23.8460  -10.4780   21.0090 C   0  0  0  0  0  0  0  0  0  0  0  0
  -24.2670   -9.5140   21.9530 C   0  0  0  0  0  3  0  0  0  0  0  0
  -23.5360   -8.3200   22.1300 C   0  0  0  0  0  3  0  0  0  0  0  0
  -22.3690   -8.0820   21.3650 C   0  0  0  0  0  0  0  0  0  0  0  0
  -21.9670   -9.0350   20.4130 C   0  0  0  0  0  3  0  0  0  0  0  0
  -22.6990  -10.2210   20.2330 C   0  0  0  0  0  3  0  0  0  0  0  0
  -21.6090   -6.9410   21.4540 O   0  0  0  0  0  0  0  0  0  0  0  0
  -21.5560   -6.1990   22.6070 C   0  0  0  0  0  0  0  0  0  0  0  0
  -21.1270   -6.7550   23.8310 C   0  0  0  0  0  3  0  0  0  0  0  0
  -21.0200   -5.9400   24.9750 C   0  0  0  0  0  3  0  0  0  0  0  0
  -21.3310   -4.5690   24.8960 C   0  0  0  0  0  0  0  0  0  0  0  0
  -21.7540   -4.0120   23.6760 C   0  0  0  0  0  3  0  0  0  0  0  0
  -21.8620   -4.8240   22.5340 C   0  0  0  0  0  0  0  0  0  0  0  0
  -22.2490   -4.2780   21.3560 F   0  0  0  0  0  0  0  0  0  0  0  0
  -21.2200   -3.7840   25.9930 F   0  0  0  0  0  0  0  0  0  0  0  0
  -22.7240  -13.5740   21.0790 C   0  0  0  0  0  0  0  0  0  0  0  0
  -21.9810  -12.8880   21.9410 N   0  0  0  0  0  0  0  0  0  0  0  0
  -22.2970  -14.5960   20.5430 O   0  0  0  0  0  0  0  0  0  0  0  0
  -22.3380  -12.0590   22.3930 H   0  0  0  0  0  0  0  0  0  0  0  0
  -21.0430  -13.1950   22.1530 H   0  0  0  0  0  0  0  0  0  0  0  0
  -25.3740  -15.2200   20.2670 N   0  0  0  0  0  0  0  0  0  0  0  0
  -24.5980  -15.8740   20.3090 H   0  0  0  0  0  0  0  0  0  0  0  0
  -26.2180  -15.6230   19.8790 H   0  0  0  0  0  0  0  0  0  0  0  0
  1  2  2  0
  1  4  1  0
  2  5  1  0
  3  6  1  0
  4  3  2  0
  5 56  1  0
  5  6  2  0
  6 54  1  0
  7  4  1  0
  7  8  1  0
  8 10  1  0
  9  7  2  0
 11  8  1  0
 12 11  1  0
 12 13  1  0
 14 25  2  0
 15 13  1  0
 15 20  1  0
 16 24  1  0
 16 26  1  0
 17 23  1  0
 17 19  1  0
 18 24  1  0
 19 18  1  0
 20 19  2  0
 21 22  1  0
 21 15  2  0
 22 17  2  0
 23 16  1  0
 24 14  1  0
 26 28  2  0
 27 26  1  0
 29 27  1  0
 30 39  2  0
 30 35  1  0
 31 27  1  0
 31 35  1  0
 32 31  1  0
 33 34  1  0
 33 32  1  0
 34 30  1  0
 35 36  2  0
 36 37  1  0
 38 37  2  0
 39 38  1  0
 40 14  1  0
 40 41  1  0
 40 50  1  0
 41 44  1  0
 42 46  1  0
 42 41  1  0
 43 42  2  0
 46 45  1  0
 48 46  1  0
 48 49  1  0
 48 47  1  0
 50 53  1  1
 50 51  1  0
 52 50  1  0
 54 55  1  0
 56 59  1  0
 57 56  1  0
 57 58  1  0
 59 68  1  0
 60 68  1  0
 61 66  1  0
 62 63  1  0
 62 61  1  0
 64 63  1  0
 64 73  1  0
 64 65  1  0
 66 60  1  0
 66 65  1  0
 67 60  2  0
 68 69  1  0
 70 71  2  0
 71 90  1  0
 72 71  1  0
 72 75  1  0
 73 70  1  0
 73 74  1  0
 74 72  2  0
 75 76  1  0
 76 77  2  0
 78 81  1  0
 78 77  1  0
 79 78  2  0
 80 79  1  0
 80 75  2  0
 81 82  1  0
 82 83  1  0
 83 84  2  0
 85 84  1  0
 85 89  1  0
 86 85  2  0
 87 82  2  0
 87 86  1  0
 88 87  1  0
 90 91  1  0
 91 94  1  0
 91 93  1  0
 92 90  2  0
 95 96  1  0
 95 70  1  0
 97 95  1  0
M  ISO  4  12 101  13 101  60 100  68 100
M  END
>  <TORSDO>  (31) 
F 23

>  <SCORE>  (31) 
-13.221

>  <name>  (31) 
30

>  <ligand_id>  (31) 
30

>  <original_smiles>  (31) 
[H]Oc1c([H])c(C(=O)N([H])C([H])([H])C([H])([H])Oc2c([H])c([H])c3c(c2[H])C([H])([H])N(C(=O)C([H])(N([H])C(=O)C([H])(N([H])C([H])([H])[H])C([H])([H])[H])C(C([H])([H])[H])(C([H])([H])[H])C([H])([H])[H])C([H])(C(=O)N([H])C2([H])c4c([H])c([H])c([H])c([H])c4C([H])([H])C([H])([H])C2([H])[H])C3([H])[H])c([H])c([H])c1C([H])(O[H])C([H])([H])N([H])C(=O)N1C([H])([H])C([H])([H])C([H])([H])C([H])(n2nc(-c3c([H])c([H])c(Oc4c([H])c([H])c(F)c([H])c4F)c([H])c3[H])c(C(=O)N([H])[H])c2N([H])[H])C1([H])[H]

>  <smiles>  (31) 
[H]Oc1c([H])c(C(=O)N([H])C([H])([H])C([H])([H])Oc2c([H])c([H])c3c(c2[H])C([H])([H])N(C(=O)C([H])(N([H])C(=O)C([H])(N([H])C([H])([H])[H])C([H])([H])[H])C(C([H])([H])[H])(C([H])([H])[H])C([H])([H])[H])C([H])(C(=O)N([H])C2([H])c4c([H])c([H])c([H])c([H])c4C([H])([H])C([H])([H])C2([H])[H])C3([H])[H])c([H])c([H])c1C([H])(O[H])C([H])([H])N([H])C(=O)N1C([H])([H])C([H])([H])C([H])([H])C([H])(n2nc(-c3c([H])c([H])c(Oc4c([H])c([H])c(F)c([H])c4F)c([H])c3[H])c(C(=O)N([H])[H])c2N([H])[H])C1([H])[H]

$$$$
31:0:0
     RDKit          3D

 93101  0  0  1  0  0  0  0  0999 V2000
  -29.7330  -23.9470   17.2010 C   0  0  0  0  0  3  0  0  0  0  0  0
  -29.2300  -25.1750   16.7370 C   0  0  0  0  0  3  0  0  0  0  0  0
  -29.2640  -24.6340   19.4890 C   0  0  0  0  0  3  0  0  0  0  0  0
  -29.7540  -23.6670   18.5800 C   0  0  0  0  0  0  0  0  0  0  0  0
  -28.7850  -26.1600   17.6450 C   0  0  0  0  0  0  0  0  0  0  0  0
  -28.7800  -25.8820   19.0400 C   0  0  0  0  0  0  0  0  0  0  0  0
  -28.3650  -27.5050   17.0790 C   0  0  0  0  0  1  0  0  0  0  0  0
  -30.3920  -22.4130   19.0460 C   0  0  0  0  0  0  0  0  0  0  0  0
  -31.4300  -21.9760   18.5390 O   0  0  0  0  0  0  0  0  0  0  0  0
  -29.6460  -21.6310   20.1390 C   0  0  0  0  0  2  0  0  0  0  0  0
  -30.3840  -20.3880   20.7010 C   0  0  0  0  0  2  0  0  0  0  0  0
  -29.5330  -19.1150   20.6150 C   0  0  0  0  0  2  0  0  0  0  0  0
  -30.2240  -17.8550   21.1820 C   0  0  0  0  0  2  0  0  0  0  0  0
  -29.6200  -16.5950   20.5490 C   0  0  0  0  0  2  0  0  0  0  0  0
  -30.6740  -14.3980   20.5160 C   0  0  0  0  0  0  0  0  0  0  0  0
  -30.3700  -12.2780   19.3140 C   0  0  0  0  0  2  0  0  0  0  0  0
  -29.4290  -12.5220   18.1150 C   0  0  0  0  0  2  0  0  0  0  0  0
  -27.9510  -12.3970   18.5400 C   0  0  0  0  0  2  0  0  0  0  0  0
  -27.6210  -13.2160   19.8170 C   0  0  0  0  0  3  0  0  0  0  0  0
  -28.6680  -12.9280   20.9180 C   0  0  0  0  0  2  0  0  0  0  0  0
  -30.0100  -13.2240   20.3780 N   0  0  0  0  0  0  0  0  0  0  0  0
  -31.7390  -14.6630   19.9440 O   0  0  0  0  0  0  0  0  0  0  0  0
  -29.9960  -15.3350   21.1830 N   0  0  0  0  0  0  0  0  0  0  0  0
  -29.2970  -14.9600   21.8090 H   0  0  0  0  0  0  0  0  0  0  0  0
  -25.2090  -13.8320   20.4990 C   0  0  0  0  0  0  0  0  0  0  0  0
  -24.1370  -13.0630   20.8700 C   0  0  0  0  0  0  0  0  0  0  0  0
  -24.6010  -11.7090   20.8540 C   0  0  0  0  0  0  0  0  0  0  0  0
  -26.2580  -12.9510   20.2850 N   0  0  0  0  0  0  0  0  0  0  0  0
  -25.8920  -11.6680   20.5500 N   0  0  0  0  0  0  0  0  0  0  0  0
  -23.8750  -10.4460   21.0480 C   0  0  0  0  0  0  0  0  0  0  0  0
  -24.3150   -9.4780   21.9770 C   0  0  0  0  0  3  0  0  0  0  0  0
  -23.5940   -8.2790   22.1570 C   0  0  0  0  0  3  0  0  0  0  0  0
  -22.4150   -8.0410   21.4140 C   0  0  0  0  0  0  0  0  0  0  0  0
  -21.9900   -9.0010   20.4790 C   0  0  0  0  0  3  0  0  0  0  0  0
  -22.7110  -10.1920   20.2930 C   0  0  0  0  0  3  0  0  0  0  0  0
  -21.6600   -6.8970   21.5070 O   0  0  0  0  0  0  0  0  0  0  0  0
  -21.6420   -6.1420   22.6560 C   0  0  0  0  0  0  0  0  0  0  0  0
  -21.2570   -6.6850   23.9010 C   0  0  0  0  0  3  0  0  0  0  0  0
  -21.1810   -5.8540   25.0380 C   0  0  0  0  0  3  0  0  0  0  0  0
  -21.4800   -4.4820   24.9310 C   0  0  0  0  0  0  0  0  0  0  0  0
  -21.8550   -3.9400   23.6900 C   0  0  0  0  0  3  0  0  0  0  0  0
  -21.9320   -4.7670   22.5560 C   0  0  0  0  0  0  0  0  0  0  0  0
  -22.2720   -4.2330   21.3580 F   0  0  0  0  0  0  0  0  0  0  0  0
  -21.4040   -3.6840   26.0220 F   0  0  0  0  0  0  0  0  0  0  0  0
  -22.7370  -13.5440   21.1300 C   0  0  0  0  0  0  0  0  0  0  0  0
  -21.9990  -12.8590   21.9950 N   0  0  0  0  0  0  0  0  0  0  0  0
  -22.3020  -14.5640   20.5960 O   0  0  0  0  0  0  0  0  0  0  0  0
  -22.3570  -12.0430   22.4640 H   0  0  0  0  0  0  0  0  0  0  0  0
  -21.0610  -13.1730   22.2030 H   0  0  0  0  0  0  0  0  0  0  0  0
  -25.3890  -15.2000   20.3050 N   0  0  0  0  0  0  0  0  0  0  0  0
  -24.6460  -15.8860   20.3840 H   0  0  0  0  0  0  0  0  0  0  0  0
  -26.2590  -15.5970   19.9720 H   0  0  0  0  0  0  0  0  0  0  0  0
  -28.4580  -26.8070   20.0150 O   0  0  0  0  0  0  0  0  0  0  0  0
  -24.6220  -31.8930   23.1980 C   0  0  0  0  0  0  0  0  0  0  0  0
  -27.2510  -27.4700   20.0600 C   0  0  0  0  0  0  0  0  0  0  0  0
  -23.3950  -30.4770   21.5840 C   0  0  0  0  0  3  0  0  0  0  0  0
  -24.8300  -28.9360   20.1420 C   0  0  0  0  0  0  0  0  0  0  0  0
  -25.9160  -30.8380   21.3550 C   0  0  0  0  0  2  0  0  0  0  0  0
  -25.9930  -29.4700   20.7130 C   0  0  0  0  0  0  0  0  0  0  0  0
  -27.1990  -28.7410   20.6770 C   0  0  0  0  0  3  0  0  0  0  0  0
  -26.0630  -26.9260   19.5250 C   0  0  0  0  0  3  0  0  0  0  0  0
  -24.8600  -27.6580   19.5540 C   0  0  0  0  0  3  0  0  0  0  0  0
  -23.5820  -29.7870   20.2060 C   0  0  0  0  0  2  0  0  0  0  0  0
  -24.6640  -31.0830   22.1030 N   0  0  0  0  0  0  0  0  0  0  0  0
  -23.5450  -32.1830   23.7330 O   0  0  0  0  0  0  0  0  0  0  0  0
  -22.7580  -29.4620   22.5590 C   0  0  0  0  0  0  0  0  0  0  0  0
  -21.4350  -29.2750   22.4450 N   0  0  0  0  0  0  0  0  0  0  0  0
  -23.4520  -28.8440   23.3690 O   0  0  0  0  0  0  0  0  0  0  0  0
  -20.9370  -29.8250   21.7590 H   0  0  0  0  0  0  0  0  0  0  0  0
  -18.0670  -28.0760   22.9770 C   0  0  0  0  0  0  0  0  0  0  0  0
  -20.6270  -28.3400   23.2270 C   0  0  0  0  0  3  0  0  0  0  0  0
  -20.7260  -26.9070   22.6570 C   0  0  0  0  0  2  0  0  0  0  0  0
  -19.6180  -26.5780   21.6520 C   0  0  0  0  0  2  0  0  0  0  0  0
  -18.2400  -26.7240   22.3030 C   0  0  0  0  0  2  0  0  0  0  0  0
  -19.1870  -28.8410   23.3950 C   0  0  0  0  0  0  0  0  0  0  0  0
  -18.9720  -30.1070   23.9840 C   0  0  0  0  0  3  0  0  0  0  0  0
  -17.6680  -30.6080   24.1570 C   0  0  0  0  0  3  0  0  0  0  0  0
  -16.5630  -29.8410   23.7540 C   0  0  0  0  0  3  0  0  0  0  0  0
  -16.7630  -28.5760   23.1710 C   0  0  0  0  0  3  0  0  0  0  0  0
  -25.9180  -32.5180   23.8080 C   0  0  0  0  0  3  0  0  0  0  0  0
  -25.6070  -33.9090   24.1570 N   0  0  0  0  0  0  0  0  0  0  0  0
  -25.9250  -34.9710   23.4040 C   0  0  0  0  0  0  0  0  0  0  0  0
  -26.5830  -34.8830   22.3650 O   0  0  0  0  0  0  0  0  0  0  0  0
  -25.0130  -34.0510   24.9600 H   0  0  0  0  0  0  0  0  0  0  0  0
  -24.1830  -36.7610   23.0920 C   0  0  0  0  0  1  0  0  0  0  0  0
  -25.4350  -36.3500   23.8840 C   0  0  0  0  0  3  0  0  0  0  0  0
  -27.5770  -37.2360   24.6950 C   0  0  0  0  0  1  0  0  0  0  0  0
  -26.4600  -37.4120   23.7700 N   0  0  0  0  0  0  0  0  0  0  0  0
  -26.0500  -38.3260   23.9330 H   0  0  0  0  0  0  0  0  0  0  0  0
  -26.4620  -31.7360   25.0690 C   0  0  1  0  0  0  0  0  0  0  0  0
  -25.3890  -31.4910   26.1530 C   0  0  0  0  0  1  0  0  0  0  0  0
  -27.0420  -30.3630   24.6560 C   0  0  0  0  0  1  0  0  0  0  0  0
  -27.6240  -32.5300   25.7100 C   0  0  0  0  0  1  0  0  0  0  0  0
  1  4  1  0
  2  1  2  0
  2  5  1  0
  4  8  1  0
  4  3  2  0
  5  6  2  0
  6  3  1  0
  6 53  1  0
  7  5  1  0
  8 10  1  0
  9  8  2  0
 10 11  1  0
 12 11  1  0
 12 13  1  0
 14 13  1  0
 14 23  1  0
 15 23  1  0
 16 21  1  0
 17 18  1  0
 17 16  1  0
 19 18  1  0
 19 28  1  0
 19 20  1  0
 21 15  1  0
 21 20  1  0
 22 15  2  0
 23 24  1  0
 25 26  2  0
 26 45  1  0
 27 26  1  0
 27 30  1  0
 28 25  1  0
 28 29  1  0
 29 27  2  0
 30 31  1  0
 31 32  2  0
 33 36  1  0
 33 32  1  0
 34 33  2  0
 35 34  1  0
 35 30  2  0
 36 37  1  0
 37 38  1  0
 38 39  2  0
 40 39  1  0
 40 44  1  0
 41 40  2  0
 42 37  2  0
 42 41  1  0
 43 42  1  0
 45 46  1  0
 46 49  1  0
 46 48  1  0
 47 45  2  0
 50 51  1  0
 50 25  1  0
 52 50  1  0
 53 55  1  0
 54 65  2  0
 55 60  1  0
 56 64  1  0
 56 66  1  0
 57 63  1  0
 57 59  1  0
 58 64  1  0
 59 58  1  0
 60 59  2  0
 61 62  1  0
 61 55  2  0
 62 57  2  0
 63 56  1  0
 64 54  1  0
 66 68  2  0
 67 66  1  0
 69 67  1  0
 70 79  2  0
 70 75  1  0
 71 67  1  0
 71 75  1  0
 72 71  1  0
 73 74  1  0
 73 72  1  0
 74 70  1  0
 75 76  2  0
 76 77  1  0
 78 77  2  0
 79 78  1  0
 80 54  1  0
 80 81  1  0
 80 90  1  0
 81 84  1  0
 82 86  1  0
 82 81  1  0
 83 82  2  0
 86 85  1  0
 88 86  1  0
 88 89  1  0
 88 87  1  0
 90 93  1  1
 90 91  1  0
 92 90  1  0
M  ISO  4   6 101  15 100  23 100  53 101
M  END
>  <TORSDO>  (32) 
F 22

>  <SCORE>  (32) 
-13.125

>  <name>  (32) 
31

>  <ligand_id>  (32) 
31

>  <original_smiles>  (32) 
[H]c1c([H])c([H])c2c(c1[H])C([H])([H])C([H])([H])C([H])([H])C2([H])N([H])C(=O)C1([H])N(C(=O)C([H])(N([H])C(=O)C([H])(N([H])C([H])([H])[H])C([H])([H])[H])C(C([H])([H])[H])(C([H])([H])[H])C([H])([H])[H])C([H])([H])c2c([H])c(Oc3c([H])c(C(=O)C([H])([H])C([H])([H])C([H])([H])C([H])([H])C([H])([H])N([H])C(=O)N4C([H])([H])C([H])([H])C([H])([H])C([H])(n5nc(-c6c([H])c([H])c(Oc7c([H])c([H])c(F)c([H])c7F)c([H])c6[H])c(C(=O)N([H])[H])c5N([H])[H])C4([H])[H])c([H])c([H])c3C([H])([H])[H])c([H])c([H])c2C1([H])[H]

>  <smiles>  (32) 
[H]c1c([H])c([H])c2c(c1[H])C([H])([H])C([H])([H])C([H])([H])C2([H])N([H])C(=O)C1([H])N(C(=O)C([H])(N([H])C(=O)C([H])(N([H])C([H])([H])[H])C([H])([H])[H])C(C([H])([H])[H])(C([H])([H])[H])C([H])([H])[H])C([H])([H])c2c([H])c(Oc3c([H])c(C(=O)C([H])([H])C([H])([H])C([H])([H])C([H])([H])C([H])([H])N([H])C(=O)N4C([H])([H])C([H])([H])C([H])([H])C([H])(n5nc(-c6c([H])c([H])c(Oc7c([H])c([H])c(F)c([H])c7F)c([H])c6[H])c(C(=O)N([H])[H])c5N([H])[H])C4([H])[H])c([H])c([H])c3C([H])([H])[H])c([H])c([H])c2C1([H])[H]

$$$$
32:0:0
     RDKit          3D

 93101  0  0  1  0  0  0  0  0999 V2000
  -30.1720  -20.3740   20.6990 C   0  0  0  0  0  3  0  0  0  0  0  0
  -30.1450  -21.8000   20.7080 C   0  0  0  0  0  3  0  0  0  0  0  0
  -28.1960  -20.3850   19.3400 C   0  0  0  0  0  3  0  0  0  0  0  0
  -29.1780  -19.6200   20.0300 C   0  0  0  0  0  0  0  0  0  0  0  0
  -29.1390  -22.5740   20.0530 C   0  0  0  0  0  0  0  0  0  0  0  0
  -28.1740  -21.8170   19.3100 C   0  0  0  0  0  0  0  0  0  0  0  0
  -27.1540  -22.4550   18.4280 C   0  0  0  0  0  3  0  0  0  0  0  0
  -26.1910  -21.8590   17.9340 O   0  0  0  0  0  0  0  0  0  0  0  0
  -29.1050  -18.0810   20.0150 C   0  0  0  0  0  0  0  0  0  0  0  0
  -28.1450  -17.4990   19.4950 O   0  0  0  0  0  0  0  0  0  0  0  0
  -30.2080  -17.1660   20.6480 C   0  0  0  0  0  2  0  0  0  0  0  0
  -30.6180  -14.6250   20.4160 C   0  0  0  0  0  0  0  0  0  0  0  0
  -30.3850  -12.3950   19.3660 C   0  0  0  0  0  2  0  0  0  0  0  0
  -29.4620  -12.5500   18.1380 C   0  0  0  0  0  2  0  0  0  0  0  0
  -27.9850  -12.3950   18.5540 C   0  0  0  0  0  2  0  0  0  0  0  0
  -27.6150  -13.2570   19.7900 C   0  0  0  0  0  3  0  0  0  0  0  0
  -28.6620  -13.1050   20.9160 C   0  0  0  0  0  2  0  0  0  0  0  0
  -29.9770  -13.4200   20.3410 N   0  0  0  0  0  0  0  0  0  0  0  0
  -31.7950  -14.7610   20.0720 O   0  0  0  0  0  0  0  0  0  0  0  0
  -29.8400  -15.7070   20.6830 N   0  0  0  0  0  0  0  0  0  0  0  0
  -28.8590  -15.5230   20.8300 H   0  0  0  0  0  0  0  0  0  0  0  0
  -25.2150  -13.8600   20.4820 C   0  0  0  0  0  0  0  0  0  0  0  0
  -24.1460  -13.0900   20.8500 C   0  0  0  0  0  0  0  0  0  0  0  0
  -24.6090  -11.7380   20.8330 C   0  0  0  0  0  0  0  0  0  0  0  0
  -26.2630  -12.9790   20.2630 N   0  0  0  0  0  0  0  0  0  0  0  0
  -25.9010  -11.6990   20.5330 N   0  0  0  0  0  0  0  0  0  0  0  0
  -23.8830  -10.4770   21.0260 C   0  0  0  0  0  0  0  0  0  0  0  0
  -24.3090   -9.5140   21.9660 C   0  0  0  0  0  3  0  0  0  0  0  0
  -23.5840   -8.3160   22.1450 C   0  0  0  0  0  3  0  0  0  0  0  0
  -22.4160   -8.0730   21.3850 C   0  0  0  0  0  0  0  0  0  0  0  0
  -22.0070   -9.0250   20.4350 C   0  0  0  0  0  3  0  0  0  0  0  0
  -22.7340  -10.2130   20.2520 C   0  0  0  0  0  3  0  0  0  0  0  0
  -21.6630   -6.9280   21.4740 O   0  0  0  0  0  0  0  0  0  0  0  0
  -21.6120   -6.1860   22.6280 C   0  0  0  0  0  0  0  0  0  0  0  0
  -21.1780   -6.7440   23.8510 C   0  0  0  0  0  3  0  0  0  0  0  0
  -21.0730   -5.9300   24.9970 C   0  0  0  0  0  3  0  0  0  0  0  0
  -21.3900   -4.5600   24.9220 C   0  0  0  0  0  0  0  0  0  0  0  0
  -21.8170   -4.0040   23.7030 C   0  0  0  0  0  3  0  0  0  0  0  0
  -21.9250   -4.8150   22.5600 C   0  0  0  0  0  0  0  0  0  0  0  0
  -22.3160   -4.2680   21.3830 F   0  0  0  0  0  0  0  0  0  0  0  0
  -21.2820   -3.7770   26.0200 F   0  0  0  0  0  0  0  0  0  0  0  0
  -22.7450  -13.5690   21.1050 C   0  0  0  0  0  0  0  0  0  0  0  0
  -22.0060  -12.8780   21.9630 N   0  0  0  0  0  0  0  0  0  0  0  0
  -22.3170  -14.5960   20.5800 O   0  0  0  0  0  0  0  0  0  0  0  0
  -22.3610  -12.0460   22.4130 H   0  0  0  0  0  0  0  0  0  0  0  0
  -21.0660  -13.1830   22.1750 H   0  0  0  0  0  0  0  0  0  0  0  0
  -25.3790  -15.2310   20.2910 N   0  0  0  0  0  0  0  0  0  0  0  0
  -24.6030  -15.8790   20.3770 H   0  0  0  0  0  0  0  0  0  0  0  0
  -26.2120  -15.6680   19.9120 H   0  0  0  0  0  0  0  0  0  0  0  0
  -29.2750  -24.1160   20.0860 C   0  0  0  0  0  0  0  0  0  0  0  0
  -30.3770  -24.6430   19.9020 O   0  0  0  0  0  0  0  0  0  0  0  0
  -28.0740  -25.0660   20.4480 C   0  0  0  0  0  2  0  0  0  0  0  0
  -28.3210  -26.5110   20.2140 O   0  0  0  0  0  0  0  0  0  0  0  0
  -24.6030  -31.9040   23.2600 C   0  0  0  0  0  0  0  0  0  0  0  0
  -27.2010  -27.3480   20.1960 C   0  0  0  0  0  0  0  0  0  0  0  0
  -23.3930  -30.4940   21.6370 C   0  0  0  0  0  3  0  0  0  0  0  0
  -24.8370  -28.9490   20.2040 C   0  0  0  0  0  0  0  0  0  0  0  0
  -25.9310  -30.8150   21.4460 C   0  0  0  0  0  2  0  0  0  0  0  0
  -26.0090  -29.4400   20.7950 C   0  0  0  0  0  0  0  0  0  0  0  0
  -27.1960  -28.6520   20.7800 C   0  0  0  0  0  3  0  0  0  0  0  0
  -26.0110  -26.9130   19.5710 C   0  0  0  0  0  3  0  0  0  0  0  0
  -24.8400  -27.6910   19.5860 C   0  0  0  0  0  3  0  0  0  0  0  0
  -23.5990  -29.8190   20.2580 C   0  0  0  0  0  2  0  0  0  0  0  0
  -24.6610  -31.0830   22.1730 N   0  0  0  0  0  0  0  0  0  0  0  0
  -23.5170  -32.2080   23.7720 O   0  0  0  0  0  0  0  0  0  0  0  0
  -22.7370  -29.4740   22.5980 C   0  0  0  0  0  0  0  0  0  0  0  0
  -21.4140  -29.2860   22.4670 N   0  0  0  0  0  0  0  0  0  0  0  0
  -23.4180  -28.8570   23.4220 O   0  0  0  0  0  0  0  0  0  0  0  0
  -20.9230  -29.8340   21.7730 H   0  0  0  0  0  0  0  0  0  0  0  0
  -18.0400  -28.0750   22.9530 C   0  0  0  0  0  0  0  0  0  0  0  0
  -20.5960  -28.3460   23.2370 C   0  0  0  0  0  3  0  0  0  0  0  0
  -20.7080  -26.9130   22.6670 C   0  0  0  0  0  2  0  0  0  0  0  0
  -19.6140  -26.5800   21.6480 C   0  0  0  0  0  2  0  0  0  0  0  0
  -18.2280  -26.7220   22.2840 C   0  0  0  0  0  2  0  0  0  0  0  0
  -19.1530  -28.8430   23.3860 C   0  0  0  0  0  0  0  0  0  0  0  0
  -18.9260  -30.1090   23.9700 C   0  0  0  0  0  3  0  0  0  0  0  0
  -17.6180  -30.6040   24.1250 C   0  0  0  0  0  3  0  0  0  0  0  0
  -16.5190  -29.8320   23.7110 C   0  0  0  0  0  3  0  0  0  0  0  0
  -16.7310  -28.5680   23.1300 C   0  0  0  0  0  3  0  0  0  0  0  0
  -25.8900  -32.5240   23.8880 C   0  0  0  0  0  3  0  0  0  0  0  0
  -25.5890  -33.9240   24.2140 N   0  0  0  0  0  0  0  0  0  0  0  0
  -25.9180  -34.9690   23.4450 C   0  0  0  0  0  0  0  0  0  0  0  0
  -26.5790  -34.8570   22.4090 O   0  0  0  0  0  0  0  0  0  0  0  0
  -25.0030  -34.0860   25.0200 H   0  0  0  0  0  0  0  0  0  0  0  0
  -24.1890  -36.7600   23.0910 C   0  0  0  0  0  1  0  0  0  0  0  0
  -25.4370  -36.3610   23.8960 C   0  0  0  0  0  3  0  0  0  0  0  0
  -27.5770  -37.2490   24.7060 C   0  0  0  0  0  1  0  0  0  0  0  0
  -26.4710  -37.4110   23.7660 N   0  0  0  0  0  0  0  0  0  0  0  0
  -26.0670  -38.3330   23.9060 H   0  0  0  0  0  0  0  0  0  0  0  0
  -26.4000  -31.7530   25.1670 C   0  0  1  0  0  0  0  0  0  0  0  0
  -25.3010  -31.5230   26.2310 C   0  0  0  0  0  1  0  0  0  0  0  0
  -26.9810  -30.3720   24.7840 C   0  0  0  0  0  1  0  0  0  0  0  0
  -27.5530  -32.5440   25.8300 C   0  0  0  0  0  1  0  0  0  0  0  0
  1  2  1  0
  3  4  1  0
  4  1  2  0
  5 50  1  0
  5  2  2  0
  6  3  2  0
  6  5  1  0
  7  6  1  0
  8  7  2  0
  9  4  1  0
  9 11  1  0
 10  9  2  0
 11 20  1  0
 12 20  1  0
 13 18  1  0
 14 15  1  0
 14 13  1  0
 16 15  1  0
 16 25  1  0
 16 17  1  0
 18 12  1  0
 18 17  1  0
 19 12  2  0
 20 21  1  0
 22 23  2  0
 23 42  1  0
 24 23  1  0
 24 27  1  0
 25 22  1  0
 25 26  1  0
 26 24  2  0
 27 28  1  0
 28 29  2  0
 30 33  1  0
 30 29  1  0
 31 30  2  0
 32 31  1  0
 32 27  2  0
 33 34  1  0
 34 35  1  0
 35 36  2  0
 37 36  1  0
 37 41  1  0
 38 37  2  0
 39 34  2  0
 39 38  1  0
 40 39  1  0
 42 43  1  0
 43 46  1  0
 43 45  1  0
 44 42  2  0
 47 48  1  0
 47 22  1  0
 49 47  1  0
 50 52  1  0
 51 50  2  0
 53 52  1  0
 54 65  2  0
 55 53  1  0
 55 60  1  0
 56 64  1  0
 56 66  1  0
 57 63  1  0
 57 59  1  0
 58 64  1  0
 59 58  1  0
 60 59  2  0
 61 62  1  0
 61 55  2  0
 62 57  2  0
 63 56  1  0
 64 54  1  0
 66 68  2  0
 67 66  1  0
 69 67  1  0
 70 79  2  0
 70 75  1  0
 71 67  1  0
 71 75  1  0
 72 71  1  0
 73 74  1  0
 73 72  1  0
 74 70  1  0
 75 76  2  0
 76 77  1  0
 78 77  2  0
 79 78  1  0
 80 54  1  0
 80 81  1  0
 80 90  1  0
 81 84  1  0
 82 86  1  0
 82 81  1  0
 83 82  2  0
 86 85  1  0
 88 86  1  0
 88 89  1  0
 88 87  1  0
 90 93  1  1
 90 91  1  0
 92 90  1  0
M  ISO  4  12 100  20 100  52 101  53 101
M  END
>  <TORSDO>  (33) 
F 21

>  <SCORE>  (33) 
-13.824

>  <name>  (33) 
32

>  <ligand_id>  (33) 
32

>  <original_smiles>  (33) 
[H]C(=O)c1c([H])c(C(=O)C([H])([H])N([H])C(=O)N2C([H])([H])C([H])([H])C([H])([H])C([H])(n3nc(-c4c([H])c([H])c(Oc5c([H])c([H])c(F)c([H])c5F)c([H])c4[H])c(C(=O)N([H])[H])c3N([H])[H])C2([H])[H])c([H])c([H])c1C(=O)C([H])([H])Oc1c([H])c([H])c2c(c1[H])C([H])([H])N(C(=O)C([H])(N([H])C(=O)C([H])(N([H])C([H])([H])[H])C([H])([H])[H])C(C([H])([H])[H])(C([H])([H])[H])C([H])([H])[H])C([H])(C(=O)N([H])C1([H])c3c([H])c([H])c([H])c([H])c3C([H])([H])C([H])([H])C1([H])[H])C2([H])[H]

>  <smiles>  (33) 
[H]C(=O)c1c([H])c(C(=O)C([H])([H])N([H])C(=O)N2C([H])([H])C([H])([H])C([H])([H])C([H])(n3nc(-c4c([H])c([H])c(Oc5c([H])c([H])c(F)c([H])c5F)c([H])c4[H])c(C(=O)N([H])[H])c3N([H])[H])C2([H])[H])c([H])c([H])c1C(=O)C([H])([H])Oc1c([H])c([H])c2c(c1[H])C([H])([H])N(C(=O)C([H])(N([H])C(=O)C([H])(N([H])C([H])([H])[H])C([H])([H])[H])C(C([H])([H])[H])(C([H])([H])[H])C([H])([H])[H])C([H])(C(=O)N([H])C1([H])c3c([H])c([H])c([H])c([H])c3C([H])([H])C([H])([H])C1([H])[H])C2([H])[H]

$$$$
33:0:0
     RDKit          3D

 92100  0  0  1  0  0  0  0  0999 V2000
  -29.7530  -23.3000   21.6210 C   0  0  0  0  0  3  0  0  0  0  0  0
  -30.6070  -22.2730   22.0630 C   0  0  0  0  0  3  0  0  0  0  0  0
  -28.6500  -21.7080   20.1510 C   0  0  0  0  0  3  0  0  0  0  0  0
  -28.7690  -23.0380   20.6510 C   0  0  0  0  0  0  0  0  0  0  0  0
  -30.5020  -20.9600   21.5520 C   0  0  0  0  0  0  0  0  0  0  0  0
  -29.5000  -20.6500   20.5920 C   0  0  0  0  0  0  0  0  0  0  0  0
  -31.5300  -19.9430   22.0150 C   0  0  0  0  0  1  0  0  0  0  0  0
  -29.3620  -19.3640   20.0040 N   0  0  0  0  0  0  0  0  0  0  0  0
  -28.7700  -19.3590   19.1780 H   0  0  0  0  0  0  0  0  0  0  0  0
  -29.2550  -18.1140   20.7850 C   0  0  0  0  0  2  0  0  0  0  0  0
  -30.3020  -17.0270   20.3800 C   0  0  0  0  0  2  0  0  0  0  0  0
  -30.6460  -14.5500   20.2960 C   0  0  0  0  0  0  0  0  0  0  0  0
  -30.3500  -12.3640   19.1950 C   0  0  0  0  0  2  0  0  0  0  0  0
  -29.3980  -12.5570   17.9960 C   0  0  0  0  0  2  0  0  0  0  0  0
  -27.9280  -12.4210   18.4420 C   0  0  0  0  0  2  0  0  0  0  0  0
  -27.6020  -13.2640   19.7050 C   0  0  0  0  0  3  0  0  0  0  0  0
  -28.6710  -13.0640   20.8040 C   0  0  0  0  0  2  0  0  0  0  0  0
  -29.9830  -13.3630   20.2120 N   0  0  0  0  0  0  0  0  0  0  0  0
  -31.7940  -14.6960   19.8680 O   0  0  0  0  0  0  0  0  0  0  0  0
  -29.9070  -15.6260   20.6540 N   0  0  0  0  0  0  0  0  0  0  0  0
  -28.9650  -15.4510   20.9710 H   0  0  0  0  0  0  0  0  0  0  0  0
  -25.2150  -13.8710   20.4430 C   0  0  0  0  0  0  0  0  0  0  0  0
  -24.1520  -13.0990   20.8300 C   0  0  0  0  0  0  0  0  0  0  0  0
  -24.6140  -11.7480   20.8020 C   0  0  0  0  0  0  0  0  0  0  0  0
  -26.2570  -12.9890   20.2030 N   0  0  0  0  0  0  0  0  0  0  0  0
  -25.9010  -11.7080   20.4780 N   0  0  0  0  0  0  0  0  0  0  0  0
  -23.8910  -10.4870   21.0060 C   0  0  0  0  0  0  0  0  0  0  0  0
  -24.3440   -9.5170   21.9280 C   0  0  0  0  0  3  0  0  0  0  0  0
  -23.6220   -8.3200   22.1200 C   0  0  0  0  0  3  0  0  0  0  0  0
  -22.4320   -8.0840   21.3920 C   0  0  0  0  0  0  0  0  0  0  0  0
  -21.9980   -9.0420   20.4580 C   0  0  0  0  0  3  0  0  0  0  0  0
  -22.7220  -10.2310   20.2630 C   0  0  0  0  0  3  0  0  0  0  0  0
  -21.6780   -6.9390   21.4950 O   0  0  0  0  0  0  0  0  0  0  0  0
  -21.6670   -6.1880   22.6410 C   0  0  0  0  0  0  0  0  0  0  0  0
  -21.2940   -6.7330   23.8880 C   0  0  0  0  0  3  0  0  0  0  0  0
  -21.2280   -5.9070   25.0280 C   0  0  0  0  0  3  0  0  0  0  0  0
  -21.5240   -4.5360   24.9220 C   0  0  0  0  0  0  0  0  0  0  0  0
  -21.8900   -3.9880   23.6800 C   0  0  0  0  0  3  0  0  0  0  0  0
  -21.9580   -4.8110   22.5420 C   0  0  0  0  0  0  0  0  0  0  0  0
  -22.2900   -4.2750   21.3440 F   0  0  0  0  0  0  0  0  0  0  0  0
  -21.4530   -3.7400   26.0140 F   0  0  0  0  0  0  0  0  0  0  0  0
  -22.7570  -13.5780   21.1140 C   0  0  0  0  0  0  0  0  0  0  0  0
  -22.0390  -12.8870   21.9920 N   0  0  0  0  0  0  0  0  0  0  0  0
  -22.3140  -14.5990   20.5920 O   0  0  0  0  0  0  0  0  0  0  0  0
  -22.4120  -12.0610   22.4370 H   0  0  0  0  0  0  0  0  0  0  0  0
  -21.1040  -13.1880   22.2240 H   0  0  0  0  0  0  0  0  0  0  0  0
  -25.3770  -15.2400   20.2560 N   0  0  0  0  0  0  0  0  0  0  0  0
  -24.6080  -15.8930   20.3620 H   0  0  0  0  0  0  0  0  0  0  0  0
  -26.2120  -15.6740   19.8820 H   0  0  0  0  0  0  0  0  0  0  0  0
  -27.8260  -24.1780   20.2110 C   0  0  0  0  0  2  0  0  0  0  0  0
  -28.4890  -25.4120   19.5130 C   0  0  0  0  0  2  0  0  0  0  0  0
  -28.3860  -26.6910   20.1870 O   0  0  0  0  0  0  0  0  0  0  0  0
  -24.5940  -31.9070   23.2590 C   0  0  0  0  0  0  0  0  0  0  0  0
  -27.2090  -27.4250   20.1590 C   0  0  0  0  0  0  0  0  0  0  0  0
  -23.3770  -30.5020   21.6320 C   0  0  0  0  0  3  0  0  0  0  0  0
  -24.8180  -28.9620   20.1930 C   0  0  0  0  0  0  0  0  0  0  0  0
  -25.9080  -30.8440   21.4250 C   0  0  0  0  0  2  0  0  0  0  0  0
  -25.9830  -29.4730   20.7770 C   0  0  0  0  0  0  0  0  0  0  0  0
  -27.1770  -28.7100   20.7580 C   0  0  0  0  0  3  0  0  0  0  0  0
  -26.0200  -26.9360   19.5690 C   0  0  0  0  0  3  0  0  0  0  0  0
  -24.8330  -27.6940   19.5870 C   0  0  0  0  0  3  0  0  0  0  0  0
  -23.5770  -29.8250   20.2500 C   0  0  0  0  0  2  0  0  0  0  0  0
  -24.6470  -31.0970   22.1650 N   0  0  0  0  0  0  0  0  0  0  0  0
  -23.5110  -32.2070   23.7810 O   0  0  0  0  0  0  0  0  0  0  0  0
  -22.7310  -29.4790   22.5950 C   0  0  0  0  0  0  0  0  0  0  0  0
  -21.4070  -29.2900   22.4700 N   0  0  0  0  0  0  0  0  0  0  0  0
  -23.4180  -28.8600   23.4130 O   0  0  0  0  0  0  0  0  0  0  0  0
  -20.9140  -29.8400   21.7810 H   0  0  0  0  0  0  0  0  0  0  0  0
  -18.0420  -28.0640   22.9550 C   0  0  0  0  0  0  0  0  0  0  0  0
  -20.5950  -28.3470   23.2400 C   0  0  0  0  0  3  0  0  0  0  0  0
  -20.7150  -26.9150   22.6740 C   0  0  0  0  0  2  0  0  0  0  0  0
  -19.6220  -26.5760   21.6540 C   0  0  0  0  0  2  0  0  0  0  0  0
  -18.2350  -26.7120   22.2890 C   0  0  0  0  0  2  0  0  0  0  0  0
  -19.1510  -28.8390   23.3880 C   0  0  0  0  0  0  0  0  0  0  0  0
  -18.9170  -30.1040   23.9690 C   0  0  0  0  0  3  0  0  0  0  0  0
  -17.6060  -30.5950   24.1220 C   0  0  0  0  0  3  0  0  0  0  0  0
  -16.5110  -29.8170   23.7060 C   0  0  0  0  0  3  0  0  0  0  0  0
  -16.7310  -28.5530   23.1300 C   0  0  0  0  0  3  0  0  0  0  0  0
  -25.8860  -32.5280   23.8810 C   0  0  0  0  0  3  0  0  0  0  0  0
  -25.5870  -33.9270   24.2120 N   0  0  0  0  0  0  0  0  0  0  0  0
  -25.9130  -34.9760   23.4460 C   0  0  0  0  0  0  0  0  0  0  0  0
  -26.5720  -34.8660   22.4080 O   0  0  0  0  0  0  0  0  0  0  0  0
  -25.0020  -34.0860   25.0200 H   0  0  0  0  0  0  0  0  0  0  0  0
  -24.1800  -36.7650   23.1060 C   0  0  0  0  0  1  0  0  0  0  0  0
  -25.4320  -36.3660   23.9030 C   0  0  0  0  0  3  0  0  0  0  0  0
  -27.5790  -37.2510   24.6990 C   0  0  0  0  0  1  0  0  0  0  0  0
  -26.4630  -37.4170   23.7710 N   0  0  0  0  0  0  0  0  0  0  0  0
  -26.0600  -38.3380   23.9220 H   0  0  0  0  0  0  0  0  0  0  0  0
  -26.4050  -31.7540   25.1550 C   0  0  1  0  0  0  0  0  0  0  0  0
  -25.3150  -31.5210   26.2260 C   0  0  0  0  0  1  0  0  0  0  0  0
  -26.9810  -30.3740   24.7600 C   0  0  0  0  0  1  0  0  0  0  0  0
  -27.5630  -32.5430   25.8110 C   0  0  0  0  0  1  0  0  0  0  0  0
  1  2  1  0
  3  6  2  0
  3  4  1  0
  4  1  2  0
  5  7  1  0
  5  2  2  0
  6  5  1  0
  8  6  1  0
  8 10  1  0
  9  8  1  0
 11 20  1  0
 11 10  1  0
 12 20  1  0
 13 18  1  0
 14 15  1  0
 14 13  1  0
 16 15  1  0
 16 25  1  0
 16 17  1  0
 18 12  1  0
 18 17  1  0
 19 12  2  0
 20 21  1  0
 22 23  2  0
 23 42  1  0
 24 23  1  0
 24 27  1  0
 25 22  1  0
 25 26  1  0
 26 24  2  0
 27 28  1  0
 28 29  2  0
 30 33  1  0
 30 29  1  0
 31 30  2  0
 32 31  1  0
 32 27  2  0
 33 34  1  0
 34 35  1  0
 35 36  2  0
 37 36  1  0
 37 41  1  0
 38 37  2  0
 39 34  2  0
 39 38  1  0
 40 39  1  0
 42 43  1  0
 43 46  1  0
 43 45  1  0
 44 42  2  0
 47 48  1  0
 47 22  1  0
 49 47  1  0
 50  4  1  0
 51 52  1  0
 51 50  1  0
 53 64  2  0
 54 52  1  0
 54 59  1  0
 55 63  1  0
 55 65  1  0
 56 62  1  0
 56 58  1  0
 57 63  1  0
 58 57  1  0
 59 58  2  0
 60 61  1  0
 60 54  2  0
 61 56  2  0
 62 55  1  0
 63 53  1  0
 65 67  2  0
 66 65  1  0
 68 66  1  0
 69 78  2  0
 69 74  1  0
 70 66  1  0
 70 74  1  0
 71 70  1  0
 72 73  1  0
 72 71  1  0
 73 69  1  0
 74 75  2  0
 75 76  1  0
 77 76  2  0
 78 77  1  0
 79 53  1  0
 79 80  1  0
 79 89  1  0
 80 83  1  0
 81 85  1  0
 81 80  1  0
 82 81  2  0
 85 84  1  0
 87 85  1  0
 87 88  1  0
 87 86  1  0
 89 92  1  1
 89 90  1  0
 91 89  1  0
M  ISO  4  12 100  20 100  51 101  52 101
M  END
>  <TORSDO>  (34) 
F 21

>  <SCORE>  (34) 
-13.645

>  <name>  (34) 
33

>  <ligand_id>  (34) 
33

>  <original_smiles>  (34) 
[H]c1c([H])c([H])c2c(c1[H])C([H])([H])C([H])([H])C([H])([H])C2([H])N([H])C(=O)C1([H])N(C(=O)C([H])(N([H])C(=O)C([H])(N([H])C([H])([H])[H])C([H])([H])[H])C(C([H])([H])[H])(C([H])([H])[H])C([H])([H])[H])C([H])([H])c2c([H])c(OC([H])([H])C([H])([H])c3c([H])c([H])c(C([H])([H])[H])c(N([H])C([H])([H])C([H])([H])N([H])C(=O)N4C([H])([H])C([H])([H])C([H])([H])C([H])(n5nc(-c6c([H])c([H])c(Oc7c([H])c([H])c(F)c([H])c7F)c([H])c6[H])c(C(=O)N([H])[H])c5N([H])[H])C4([H])[H])c3[H])c([H])c([H])c2C1([H])[H]

>  <smiles>  (34) 
[H]c1c([H])c([H])c2c(c1[H])C([H])([H])C([H])([H])C([H])([H])C2([H])N([H])C(=O)C1([H])N(C(=O)C([H])(N([H])C(=O)C([H])(N([H])C([H])([H])[H])C([H])([H])[H])C(C([H])([H])[H])(C([H])([H])[H])C([H])([H])[H])C([H])([H])c2c([H])c(OC([H])([H])C([H])([H])c3c([H])c([H])c(C([H])([H])[H])c(N([H])C([H])([H])C([H])([H])N([H])C(=O)N4C([H])([H])C([H])([H])C([H])([H])C([H])(n5nc(-c6c([H])c([H])c(Oc7c([H])c([H])c(F)c([H])c7F)c([H])c6[H])c(C(=O)N([H])[H])c5N([H])[H])C4([H])[H])c3[H])c([H])c([H])c2C1([H])[H]

$$$$
34:0:0
     RDKit          3D

 93102  0  0  1  0  0  0  0  0999 V2000
  -28.1860  -22.7320   21.9850 C   0  0  0  0  0  2  0  0  0  0  0  0
  -27.4580  -23.9710   21.4830 C   0  0  0  0  0  2  0  0  0  0  0  0
  -27.4390  -22.8920   19.0510 C   0  0  0  0  0  2  0  0  0  0  0  0
  -29.2770  -21.4760   19.9080 C   0  0  0  0  0  3  0  0  0  0  0  0
  -29.1220  -22.7960   20.7630 C   0  0  0  0  0  3  0  0  0  0  0  0
  -28.1270  -23.8270   20.1030 C   0  0  2  0  0  0  0  0  0  0  0  0
  -28.0510  -21.5120   19.0750 N   0  0  0  0  0  4  0  0  0  0  0  0
  -28.2330  -21.1710   18.1440 H   0  0  0  0  0  0  0  0  0  0  0  0
  -27.3850  -20.8890   19.5020 H   0  0  0  0  0  0  0  0  0  0  0  0
  -29.6440  -20.0960   20.6540 C   0  0  0  0  0  0  0  0  0  0  0  0
  -29.6480  -18.8410   20.0660 N   0  0  0  0  0  0  0  0  0  0  0  0
  -30.0180  -20.1820   21.8260 O   0  0  0  0  0  0  0  0  0  0  0  0
  -29.3490  -18.7860   19.1000 H   0  0  0  0  0  0  0  0  0  0  0  0
  -30.3490  -17.5790   20.5850 C   0  0  0  0  0  2  0  0  0  0  0  0
  -29.6910  -16.1160   20.4070 C   0  0  0  0  0  2  0  0  0  0  0  0
  -30.5940  -14.7880   20.3110 C   0  0  0  0  0  0  0  0  0  0  0  0
  -30.4370  -12.5050   19.3340 C   0  0  0  0  0  2  0  0  0  0  0  0
  -29.4980  -12.6000   18.1110 C   0  0  0  0  0  2  0  0  0  0  0  0
  -28.0310  -12.4110   18.5420 C   0  0  0  0  0  2  0  0  0  0  0  0
  -27.6510  -13.3070   19.7510 C   0  0  0  0  0  3  0  0  0  0  0  0
  -28.7060  -13.2030   20.8730 C   0  0  0  0  0  2  0  0  0  0  0  0
  -30.0140  -13.5410   20.3000 N   0  0  0  0  0  0  0  0  0  0  0  0
  -31.7880  -14.9030   20.0190 O   0  0  0  0  0  0  0  0  0  0  0  0
  -25.2620  -13.9130   20.4680 C   0  0  0  0  0  0  0  0  0  0  0  0
  -24.1940  -13.1450   20.8410 C   0  0  0  0  0  0  0  0  0  0  0  0
  -24.6540  -11.7930   20.8210 C   0  0  0  0  0  0  0  0  0  0  0  0
  -26.3060  -13.0290   20.2390 N   0  0  0  0  0  0  0  0  0  0  0  0
  -25.9450  -11.7500   20.5130 N   0  0  0  0  0  0  0  0  0  0  0  0
  -23.9240  -10.5340   21.0170 C   0  0  0  0  0  0  0  0  0  0  0  0
  -24.3490   -9.5720   21.9590 C   0  0  0  0  0  3  0  0  0  0  0  0
  -23.6210   -8.3760   22.1420 C   0  0  0  0  0  3  0  0  0  0  0  0
  -22.4500   -8.1350   21.3850 C   0  0  0  0  0  0  0  0  0  0  0  0
  -22.0400   -9.0880   20.4350 C   0  0  0  0  0  3  0  0  0  0  0  0
  -22.7700  -10.2740   20.2500 C   0  0  0  0  0  3  0  0  0  0  0  0
  -21.6940   -6.9920   21.4750 O   0  0  0  0  0  0  0  0  0  0  0  0
  -21.6430   -6.2540   22.6300 C   0  0  0  0  0  0  0  0  0  0  0  0
  -21.2180   -6.8160   23.8560 C   0  0  0  0  0  3  0  0  0  0  0  0
  -21.1140   -6.0040   25.0030 C   0  0  0  0  0  3  0  0  0  0  0  0
  -21.4240   -4.6320   24.9280 C   0  0  0  0  0  0  0  0  0  0  0  0
  -21.8400   -4.0710   23.7080 C   0  0  0  0  0  3  0  0  0  0  0  0
  -21.9470   -4.8790   22.5620 C   0  0  0  0  0  0  0  0  0  0  0  0
  -22.3290   -4.3290   21.3840 F   0  0  0  0  0  0  0  0  0  0  0  0
  -21.3160   -3.8510   26.0280 F   0  0  0  0  0  0  0  0  0  0  0  0
  -22.7960  -13.6260   21.1070 C   0  0  0  0  0  0  0  0  0  0  0  0
  -22.0660  -12.9340   21.9720 N   0  0  0  0  0  0  0  0  0  0  0  0
  -22.3620  -14.6520   20.5810 O   0  0  0  0  0  0  0  0  0  0  0  0
  -22.4280  -12.1030   22.4160 H   0  0  0  0  0  0  0  0  0  0  0  0
  -21.1300  -13.2390   22.1980 H   0  0  0  0  0  0  0  0  0  0  0  0
  -25.4340  -15.2830   20.2830 N   0  0  0  0  0  0  0  0  0  0  0  0
  -24.6710  -15.9440   20.3730 H   0  0  0  0  0  0  0  0  0  0  0  0
  -26.2990  -15.7130   19.9770 H   0  0  0  0  0  0  0  0  0  0  0  0
  -28.5290  -25.2490   19.4620 C   0  0  0  0  0  2  0  0  0  0  0  0
  -28.3900  -26.5410   20.1890 O   0  0  0  0  0  0  0  0  0  0  0  0
  -24.6110  -31.8940   23.2320 C   0  0  0  0  0  0  0  0  0  0  0  0
  -27.2380  -27.3480   20.1450 C   0  0  0  0  0  0  0  0  0  0  0  0
  -23.4080  -30.4920   21.5950 C   0  0  0  0  0  3  0  0  0  0  0  0
  -24.8560  -28.9470   20.1580 C   0  0  0  0  0  0  0  0  0  0  0  0
  -25.9480  -30.8130   21.4120 C   0  0  0  0  0  2  0  0  0  0  0  0
  -26.0260  -29.4410   20.7490 C   0  0  0  0  0  0  0  0  0  0  0  0
  -27.2140  -28.6520   20.7330 C   0  0  0  0  0  3  0  0  0  0  0  0
  -26.0370  -26.8900   19.5620 C   0  0  0  0  0  3  0  0  0  0  0  0
  -24.8630  -27.6720   19.5650 C   0  0  0  0  0  3  0  0  0  0  0  0
  -23.6220  -29.8270   20.2090 C   0  0  0  0  0  2  0  0  0  0  0  0
  -24.6760  -31.0810   22.1370 N   0  0  0  0  0  0  0  0  0  0  0  0
  -23.5230  -32.1910   23.7430 O   0  0  0  0  0  0  0  0  0  0  0  0
  -22.7510  -29.4680   22.5500 C   0  0  0  0  0  0  0  0  0  0  0  0
  -21.4250  -29.2910   22.4290 N   0  0  0  0  0  0  0  0  0  0  0  0
  -23.4340  -28.8350   23.3610 O   0  0  0  0  0  0  0  0  0  0  0  0
  -20.9330  -29.8560   21.7500 H   0  0  0  0  0  0  0  0  0  0  0  0
  -18.0480  -28.0940   22.9390 C   0  0  0  0  0  0  0  0  0  0  0  0
  -20.6090  -28.3490   23.1970 C   0  0  0  0  0  3  0  0  0  0  0  0
  -20.7050  -26.9210   22.6120 C   0  0  0  0  0  2  0  0  0  0  0  0
  -19.5970  -26.6070   21.6020 C   0  0  0  0  0  2  0  0  0  0  0  0
  -18.2180  -26.7510   22.2520 C   0  0  0  0  0  2  0  0  0  0  0  0
  -19.1700  -28.8520   23.3690 C   0  0  0  0  0  0  0  0  0  0  0  0
  -18.9570  -30.1100   23.9700 C   0  0  0  0  0  3  0  0  0  0  0  0
  -17.6540  -30.6110   24.1510 C   0  0  0  0  0  3  0  0  0  0  0  0
  -16.5460  -29.8520   23.7350 C   0  0  0  0  0  3  0  0  0  0  0  0
  -16.7440  -28.5960   23.1330 C   0  0  0  0  0  3  0  0  0  0  0  0
  -25.8940  -32.5180   23.8670 C   0  0  0  0  0  3  0  0  0  0  0  0
  -26.3960  -31.7480   25.1500 C   0  0  1  0  0  0  0  0  0  0  0  0
  -25.2960  -31.5180   26.2110 C   0  0  0  0  0  1  0  0  0  0  0  0
  -26.9830  -30.3690   24.7710 C   0  0  0  0  0  1  0  0  0  0  0  0
  -27.5400  -32.5450   25.8210 C   0  0  0  0  0  1  0  0  0  0  0  0
  -25.5870  -33.9170   24.1940 N   0  0  0  0  0  0  0  0  0  0  0  0
  -25.9180  -34.9690   23.4340 C   0  0  0  0  0  0  0  0  0  0  0  0
  -26.5870  -34.8630   22.4020 O   0  0  0  0  0  0  0  0  0  0  0  0
  -24.9950  -34.0740   24.9970 H   0  0  0  0  0  0  0  0  0  0  0  0
  -24.1910  -36.7650   23.0760 C   0  0  0  0  0  1  0  0  0  0  0  0
  -25.4320  -36.3590   23.8880 C   0  0  0  0  0  3  0  0  0  0  0  0
  -27.5650  -37.2450   24.7220 C   0  0  0  0  0  1  0  0  0  0  0  0
  -26.4660  -37.4120   23.7740 N   0  0  0  0  0  0  0  0  0  0  0  0
  -26.0600  -38.3320   23.9180 H   0  0  0  0  0  0  0  0  0  0  0  0
  2  1  1  0
  3  7  1  0
  3  6  1  0
  4 10  1  0
  4  5  1  0
  5  1  1  0
  6 52  1  6
  6  5  1  0
  6  2  1  0
  7  9  1  0
  7  4  1  0
  8  7  1  0
 10 12  2  0
 11 14  1  0
 11 10  1  0
 13 11  1  0
 15 14  1  0
 16 15  1  0
 17 22  1  0
 18 19  1  0
 18 17  1  0
 20 19  1  0
 20 27  1  0
 20 21  1  0
 22 16  1  0
 22 21  1  0
 23 16  2  0
 24 25  2  0
 25 44  1  0
 26 25  1  0
 26 29  1  0
 27 24  1  0
 27 28  1  0
 28 26  2  0
 29 30  1  0
 30 31  2  0
 32 35  1  0
 32 31  1  0
 33 32  2  0
 34 33  1  0
 34 29  2  0
 35 36  1  0
 36 37  1  0
 37 38  2  0
 39 38  1  0
 39 43  1  0
 40 39  2  0
 41 36  2  0
 41 40  1  0
 42 41  1  0
 44 45  1  0
 45 48  1  0
 45 47  1  0
 46 44  2  0
 49 50  1  0
 49 24  1  0
 51 49  1  0
 52 53  1  0
 54 65  2  0
 55 53  1  0
 55 60  1  0
 56 64  1  0
 56 66  1  0
 57 63  1  0
 57 59  1  0
 58 64  1  0
 59 58  1  0
 60 59  2  0
 61 62  1  0
 61 55  2  0
 62 57  2  0
 63 56  1  0
 64 54  1  0
 66 68  2  0
 67 66  1  0
 69 67  1  0
 70 79  2  0
 70 75  1  0
 71 67  1  0
 71 75  1  0
 72 71  1  0
 73 74  1  0
 73 72  1  0
 74 70  1  0
 75 76  2  0
 76 77  1  0
 78 77  2  0
 79 78  1  0
 80 54  1  0
 80 85  1  0
 80 81  1  0
 81 84  1  1
 81 82  1  0
 83 81  1  0
 85 88  1  0
 86 90  1  0
 86 85  1  0
 87 86  2  0
 90 89  1  0
 92 90  1  0
 92 93  1  0
 92 91  1  0
M  ISO  4  15 100  16 100  52 101  53 101
M  END
>  <TORSDO>  (35) 
F 20

>  <SCORE>  (35) 
-13.821

>  <name>  (35) 
34

>  <ligand_id>  (35) 
34

>  <original_smiles>  (35) 
[H]c1c([H])c([H])c2c(c1[H])C([H])([H])C([H])([H])C([H])([H])C2([H])N([H])C(=O)C1([H])N(C(=O)C([H])(N([H])C(=O)C([H])(N([H])C([H])([H])[H])C([H])([H])[H])C(C([H])([H])[H])(C([H])([H])[H])C([H])([H])[H])C([H])([H])c2c([H])c(OC([H])([H])C34C([H])([H])C([H])([H])C3([H])C([H])(C(=O)N([H])C([H])([H])C([H])([H])C(=O)N3C([H])([H])C([H])([H])C([H])([H])C([H])(n5nc(-c6c([H])c([H])c(Oc7c([H])c([H])c(F)c([H])c7F)c([H])c6[H])c(C(=O)N([H])[H])c5N([H])[H])C3([H])[H])[N+]([H])([H])C4([H])[H])c([H])c([H])c2C1([H])[H]

>  <smiles>  (35) 
[H]c1c([H])c([H])c2c(c1[H])C([H])([H])C([H])([H])C([H])([H])C2([H])N([H])C(=O)C1([H])N(C(=O)C([H])(N([H])C(=O)C([H])(N([H])C([H])([H])[H])C([H])([H])[H])C(C([H])([H])[H])(C([H])([H])[H])C([H])([H])[H])C([H])([H])c2c([H])c(OC([H])([H])C34C([H])([H])C([H])([H])C3([H])C([H])(C(=O)N([H])C([H])([H])C([H])([H])C(=O)N3C([H])([H])C([H])([H])C([H])([H])C([H])(n5nc(-c6c([H])c([H])c(Oc7c([H])c([H])c(F)c([H])c7F)c([H])c6[H])c(C(=O)N([H])[H])c5N([H])[H])C3([H])[H])[N+]([H])([H])C4([H])[H])c([H])c([H])c2C1([H])[H]

$$$$
35:0:0
     RDKit          3D

 93101  0  0  1  0  0  0  0  0999 V2000
  -29.8810  -22.1900   18.1740 C   0  0  0  0  0  1  0  0  0  0  0  0
  -30.1730  -22.2640   19.6900 C   0  0  0  0  0  3  0  0  0  0  0  0
  -29.2730  -18.5980   20.4030 C   0  0  0  0  0  3  0  0  0  0  0  0
  -29.1540  -19.9600   20.0630 C   0  0  0  0  0  3  0  0  0  0  0  0
  -31.4320  -19.0570   21.4160 C   0  0  0  0  0  3  0  0  0  0  0  0
  -30.4560  -18.1290   21.0060 C   0  0  0  0  0  0  0  0  0  0  0  0
  -30.2090  -20.8680   20.3210 C   0  0  0  0  0  0  0  0  0  0  0  0
  -31.3230  -20.4230   21.0810 C   0  0  0  0  0  0  0  0  0  0  0  0
  -32.4630  -21.3480   21.4770 C   0  0  0  0  0  1  0  0  0  0  0  0
  -30.8120  -16.7060   21.0290 C   0  0  0  0  0  3  0  0  0  0  0  0
  -30.0440  -15.6400   20.7170 C   0  0  0  0  0  3  0  0  0  0  0  0
  -30.7350  -14.3920   20.4180 C   0  0  0  0  0  0  0  0  0  0  0  0
  -30.3220  -12.2530   19.2990 C   0  0  0  0  0  2  0  0  0  0  0  0
  -29.4040  -12.5050   18.0880 C   0  0  0  0  0  2  0  0  0  0  0  0
  -27.9260  -12.3900   18.5120 C   0  0  0  0  0  2  0  0  0  0  0  0
  -27.5990  -13.2270   19.7780 C   0  0  0  0  0  3  0  0  0  0  0  0
  -28.6550  -13.0300   20.8880 C   0  0  0  0  0  2  0  0  0  0  0  0
  -29.9850  -13.2640   20.3120 N   0  0  0  0  0  0  0  0  0  0  0  0
  -31.9020  -14.4270   20.0180 O   0  0  0  0  0  0  0  0  0  0  0  0
  -25.2070  -13.8380   20.4990 C   0  0  0  0  0  0  0  0  0  0  0  0
  -24.1380  -13.0690   20.8740 C   0  0  0  0  0  0  0  0  0  0  0  0
  -24.5980  -11.7160   20.8470 C   0  0  0  0  0  0  0  0  0  0  0  0
  -26.2490  -12.9540   20.2660 N   0  0  0  0  0  0  0  0  0  0  0  0
  -25.8870  -11.6740   20.5350 N   0  0  0  0  0  0  0  0  0  0  0  0
  -23.8680  -10.4550   21.0430 C   0  0  0  0  0  0  0  0  0  0  0  0
  -24.3080   -9.4840   21.9700 C   0  0  0  0  0  3  0  0  0  0  0  0
  -23.5820   -8.2900   22.1540 C   0  0  0  0  0  3  0  0  0  0  0  0
  -22.4000   -8.0550   21.4120 C   0  0  0  0  0  0  0  0  0  0  0  0
  -21.9790   -9.0140   20.4740 C   0  0  0  0  0  3  0  0  0  0  0  0
  -22.7060  -10.2010   20.2870 C   0  0  0  0  0  3  0  0  0  0  0  0
  -21.6430   -6.9120   21.5060 O   0  0  0  0  0  0  0  0  0  0  0  0
  -21.6150   -6.1600   22.6520 C   0  0  0  0  0  0  0  0  0  0  0  0
  -21.2240   -6.7070   23.8930 C   0  0  0  0  0  3  0  0  0  0  0  0
  -21.1420   -5.8810   25.0330 C   0  0  0  0  0  3  0  0  0  0  0  0
  -21.4400   -4.5100   24.9310 C   0  0  0  0  0  0  0  0  0  0  0  0
  -21.8230   -3.9620   23.6940 C   0  0  0  0  0  3  0  0  0  0  0  0
  -21.9070   -4.7850   22.5570 C   0  0  0  0  0  0  0  0  0  0  0  0
  -22.2570   -4.2470   21.3630 F   0  0  0  0  0  0  0  0  0  0  0  0
  -21.3540   -3.7140   26.0230 F   0  0  0  0  0  0  0  0  0  0  0  0
  -22.7430  -13.5490   21.1460 C   0  0  0  0  0  0  0  0  0  0  0  0
  -22.0140  -12.8560   22.0150 N   0  0  0  0  0  0  0  0  0  0  0  0
  -22.3050  -14.5740   20.6250 O   0  0  0  0  0  0  0  0  0  0  0  0
  -22.3810  -12.0290   22.4640 H   0  0  0  0  0  0  0  0  0  0  0  0
  -21.0760  -13.1580   22.2370 H   0  0  0  0  0  0  0  0  0  0  0  0
  -25.3750  -15.2090   20.3180 N   0  0  0  0  0  0  0  0  0  0  0  0
  -24.6100  -15.8660   20.4270 H   0  0  0  0  0  0  0  0  0  0  0  0
  -26.2290  -15.6460   19.9970 H   0  0  0  0  0  0  0  0  0  0  0  0
  -29.2410  -23.1510   20.4130 N   0  0  0  0  0  4  0  0  0  0  0  0
  -28.2980  -22.8240   20.2620 H   0  0  0  0  0  0  0  0  0  0  0  0
  -29.4380  -23.0500   21.3970 H   0  0  0  0  0  0  0  0  0  0  0  0
  -29.3580  -24.5820   20.0380 C   0  0  0  0  0  2  0  0  0  0  0  0
  -28.3780  -25.4740   20.7960 C   0  0  0  0  0  2  0  0  0  0  0  0
  -28.4410  -26.7580   20.1810 O   0  0  0  0  0  0  0  0  0  0  0  0
  -24.6290  -31.8760   23.2450 C   0  0  0  0  0  0  0  0  0  0  0  0
  -27.2640  -27.4560   20.1780 C   0  0  0  0  0  0  0  0  0  0  0  0
  -23.4180  -30.4670   21.6120 C   0  0  0  0  0  3  0  0  0  0  0  0
  -24.8680  -28.9290   20.1880 C   0  0  0  0  0  0  0  0  0  0  0  0
  -25.9400  -30.8340   21.4060 C   0  0  0  0  0  2  0  0  0  0  0  0
  -26.0230  -29.4660   20.7700 C   0  0  0  0  0  0  0  0  0  0  0  0
  -27.2280  -28.7370   20.7600 C   0  0  0  0  0  3  0  0  0  0  0  0
  -26.1010  -26.9250   19.5810 C   0  0  0  0  0  3  0  0  0  0  0  0
  -24.8980  -27.6560   19.5910 C   0  0  0  0  0  3  0  0  0  0  0  0
  -23.6230  -29.7840   20.2330 C   0  0  0  0  0  2  0  0  0  0  0  0
  -24.6810  -31.0700   22.1490 N   0  0  0  0  0  0  0  0  0  0  0  0
  -23.5450  -32.1700   23.7690 O   0  0  0  0  0  0  0  0  0  0  0  0
  -22.7710  -29.4450   22.5750 C   0  0  0  0  0  0  0  0  0  0  0  0
  -21.4470  -29.2650   22.4530 N   0  0  0  0  0  0  0  0  0  0  0  0
  -23.4590  -28.8170   23.3860 O   0  0  0  0  0  0  0  0  0  0  0  0
  -20.9550  -29.8220   21.7680 H   0  0  0  0  0  0  0  0  0  0  0  0
  -18.0710  -28.0830   22.9580 C   0  0  0  0  0  0  0  0  0  0  0  0
  -20.6300  -28.3280   23.2240 C   0  0  0  0  0  3  0  0  0  0  0  0
  -20.7250  -26.8990   22.6440 C   0  0  0  0  0  2  0  0  0  0  0  0
  -19.6190  -26.5830   21.6340 C   0  0  0  0  0  2  0  0  0  0  0  0
  -18.2400  -26.7330   22.2810 C   0  0  0  0  0  2  0  0  0  0  0  0
  -19.1940  -28.8390   23.3860 C   0  0  0  0  0  0  0  0  0  0  0  0
  -18.9830  -30.1030   23.9780 C   0  0  0  0  0  3  0  0  0  0  0  0
  -17.6810  -30.6100   24.1460 C   0  0  0  0  0  3  0  0  0  0  0  0
  -16.5720  -29.8510   23.7350 C   0  0  0  0  0  3  0  0  0  0  0  0
  -16.7690  -28.5890   23.1450 C   0  0  0  0  0  3  0  0  0  0  0  0
  -25.9190  -32.4950   23.8700 C   0  0  0  0  0  3  0  0  0  0  0  0
  -25.6180  -33.8930   24.2050 N   0  0  0  0  0  0  0  0  0  0  0  0
  -25.9420  -34.9430   23.4400 C   0  0  0  0  0  0  0  0  0  0  0  0
  -26.6030  -34.8380   22.4020 O   0  0  0  0  0  0  0  0  0  0  0  0
  -25.0330  -34.0490   25.0120 H   0  0  0  0  0  0  0  0  0  0  0  0
  -24.2060  -36.7300   23.0990 C   0  0  0  0  0  1  0  0  0  0  0  0
  -25.4570  -36.3310   23.8990 C   0  0  0  0  0  3  0  0  0  0  0  0
  -27.6000  -37.2180   24.7020 C   0  0  0  0  0  1  0  0  0  0  0  0
  -26.4860  -37.3860   23.7730 N   0  0  0  0  0  0  0  0  0  0  0  0
  -26.0800  -38.3050   23.9260 H   0  0  0  0  0  0  0  0  0  0  0  0
  -26.4410  -31.7180   25.1410 C   0  0  1  0  0  0  0  0  0  0  0  0
  -25.3520  -31.4750   26.2110 C   0  0  0  0  0  1  0  0  0  0  0  0
  -27.0200  -30.3420   24.7350 C   0  0  0  0  0  1  0  0  0  0  0  0
  -27.5960  -32.5070   25.8010 C   0  0  0  0  0  1  0  0  0  0  0  0
  2  1  1  0
  2  7  1  0
  2 48  1  0
  3  6  1  0
  4  7  1  0
  4  3  2  0
  6 10  1  0
  6  5  2  0
  7  8  2  0
  8  5  1  0
  8  9  1  0
 11 10  2  0
 12 11  1  0
 13 18  1  0
 14 15  1  0
 14 13  1  0
 16 15  1  0
 16 23  1  0
 16 17  1  0
 18 12  1  0
 18 17  1  0
 19 12  2  0
 20 21  2  0
 21 40  1  0
 22 21  1  0
 22 25  1  0
 23 20  1  0
 23 24  1  0
 24 22  2  0
 25 26  1  0
 26 27  2  0
 28 31  1  0
 28 27  1  0
 29 28  2  0
 30 29  1  0
 30 25  2  0
 31 32  1  0
 32 33  1  0
 33 34  2  0
 35 34  1  0
 35 39  1  0
 36 35  2  0
 37 32  2  0
 37 36  1  0
 38 37  1  0
 40 41  1  0
 41 44  1  0
 41 43  1  0
 42 40  2  0
 45 46  1  0
 45 20  1  0
 47 45  1  0
 48 50  1  0
 49 48  1  0
 51 48  1  0
 51 52  1  0
 53 52  1  0
 54 65  2  0
 55 53  1  0
 55 60  1  0
 56 64  1  0
 56 66  1  0
 57 63  1  0
 57 59  1  0
 58 64  1  0
 59 58  1  0
 60 59  2  0
 61 62  1  0
 61 55  2  0
 62 57  2  0
 63 56  1  0
 64 54  1  0
 66 68  2  0
 67 66  1  0
 69 67  1  0
 70 79  2  0
 70 75  1  0
 71 67  1  0
 71 75  1  0
 72 71  1  0
 73 74  1  0
 73 72  1  0
 74 70  1  0
 75 76  2  0
 76 77  1  0
 78 77  2  0
 79 78  1  0
 80 54  1  0
 80 81  1  0
 80 90  1  0
 81 84  1  0
 82 86  1  0
 82 81  1  0
 83 82  2  0
 86 85  1  0
 88 86  1  0
 88 89  1  0
 88 87  1  0
 90 93  1  1
 90 91  1  0
 92 90  1  0
M  ISO  4  11 100  12 100  52 101  53 101
M  END
>  <TORSDO>  (36) 
F 21

>  <SCORE>  (36) 
-13.635

>  <name>  (36) 
35

>  <ligand_id>  (36) 
35

>  <original_smiles>  (36) 
[H]C(C(=O)N1C([H])([H])C([H])([H])C([H])([H])C([H])(n2nc(-c3c([H])c([H])c(Oc4c([H])c([H])c(F)c([H])c4F)c([H])c3[H])c(C(=O)N([H])[H])c2N([H])[H])C1([H])[H])=C([H])c1c([H])c([H])c(C([H])(C([H])([H])[H])[N+]([H])([H])C([H])([H])C([H])([H])Oc2c([H])c([H])c3c(c2[H])C([H])([H])N(C(=O)C([H])(N([H])C(=O)C([H])(N([H])C([H])([H])[H])C([H])([H])[H])C(C([H])([H])[H])(C([H])([H])[H])C([H])([H])[H])C([H])(C(=O)N([H])C2([H])c4c([H])c([H])c([H])c([H])c4C([H])([H])C([H])([H])C2([H])[H])C3([H])[H])c(C([H])([H])[H])c1[H]

>  <smiles>  (36) 
[H]C(C(=O)N1C([H])([H])C([H])([H])C([H])([H])C([H])(n2nc(-c3c([H])c([H])c(Oc4c([H])c([H])c(F)c([H])c4F)c([H])c3[H])c(C(=O)N([H])[H])c2N([H])[H])C1([H])[H])=C([H])c1c([H])c([H])c(C([H])(C([H])([H])[H])[N+]([H])([H])C([H])([H])C([H])([H])Oc2c([H])c([H])c3c(c2[H])C([H])([H])N(C(=O)C([H])(N([H])C(=O)C([H])(N([H])C([H])([H])[H])C([H])([H])[H])C(C([H])([H])[H])(C([H])([H])[H])C([H])([H])[H])C([H])(C(=O)N([H])C2([H])c4c([H])c([H])c([H])c([H])c4C([H])([H])C([H])([H])C2([H])[H])C3([H])[H])c(C([H])([H])[H])c1[H]

$$$$
36:0:0
     RDKit          3D

 89 96  0  0  1  0  0  0  0  0999 V2000
  -28.6620  -21.4900   20.9750 C   0  0  0  0  0  2  0  0  0  0  0  0
  -28.4560  -22.8210   21.1880 N   0  0  0  0  0  0  0  0  0  0  0  0
  -29.7190  -20.8990   20.3680 N   0  0  0  0  0  0  0  0  0  0  0  0
  -27.6760  -23.0170   21.8030 H   0  0  0  0  0  0  0  0  0  0  0  0
  -30.5100  -21.4770   20.1200 H   0  0  0  0  0  0  0  0  0  0  0  0
  -29.1270  -24.0710   20.7000 C   0  0  0  0  0  2  0  0  0  0  0  0
  -28.0830  -25.1210   20.1860 C   0  0  0  0  0  2  0  0  0  0  0  0
  -28.3430  -26.5600   20.2720 O   0  0  0  0  0  0  0  0  0  0  0  0
  -24.6110  -31.9020   23.2470 C   0  0  0  0  0  0  0  0  0  0  0  0
  -27.2130  -27.3790   20.1960 C   0  0  0  0  0  0  0  0  0  0  0  0
  -23.3980  -30.5030   21.6130 C   0  0  0  0  0  3  0  0  0  0  0  0
  -24.8410  -28.9570   20.1900 C   0  0  0  0  0  0  0  0  0  0  0  0
  -25.9330  -30.8320   21.4180 C   0  0  0  0  0  2  0  0  0  0  0  0
  -26.0110  -29.4570   20.7770 C   0  0  0  0  0  0  0  0  0  0  0  0
  -27.2000  -28.6790   20.7680 C   0  0  0  0  0  3  0  0  0  0  0  0
  -26.0200  -26.9250   19.5800 C   0  0  0  0  0  3  0  0  0  0  0  0
  -24.8430  -27.6940   19.5850 C   0  0  0  0  0  3  0  0  0  0  0  0
  -23.6070  -29.8290   20.2330 C   0  0  0  0  0  2  0  0  0  0  0  0
  -24.6660  -31.0940   22.1520 N   0  0  0  0  0  0  0  0  0  0  0  0
  -23.5260  -32.1970   23.7690 O   0  0  0  0  0  0  0  0  0  0  0  0
  -22.7400  -29.4830   22.5740 C   0  0  0  0  0  0  0  0  0  0  0  0
  -21.4110  -29.3140   22.4540 N   0  0  0  0  0  0  0  0  0  0  0  0
  -23.4200  -28.8490   23.3840 O   0  0  0  0  0  0  0  0  0  0  0  0
  -20.9220  -29.8850   21.7790 H   0  0  0  0  0  0  0  0  0  0  0  0
  -18.0280  -28.1300   22.9610 C   0  0  0  0  0  0  0  0  0  0  0  0
  -20.5900  -28.3790   23.2260 C   0  0  0  0  0  3  0  0  0  0  0  0
  -20.6800  -26.9460   22.6520 C   0  0  0  0  0  2  0  0  0  0  0  0
  -19.5740  -26.6260   21.6420 C   0  0  0  0  0  2  0  0  0  0  0  0
  -18.1950  -26.7780   22.2880 C   0  0  0  0  0  2  0  0  0  0  0  0
  -19.1520  -28.8870   23.3880 C   0  0  0  0  0  0  0  0  0  0  0  0
  -18.9390  -30.1520   23.9800 C   0  0  0  0  0  3  0  0  0  0  0  0
  -17.6370  -30.6600   24.1460 C   0  0  0  0  0  3  0  0  0  0  0  0
  -16.5290  -29.9010   23.7310 C   0  0  0  0  0  3  0  0  0  0  0  0
  -16.7250  -28.6380   23.1460 C   0  0  0  0  0  3  0  0  0  0  0  0
  -25.8980  -32.5220   23.8770 C   0  0  0  0  0  3  0  0  0  0  0  0
  -25.5980  -33.9220   24.2080 N   0  0  0  0  0  0  0  0  0  0  0  0
  -25.9280  -34.9710   23.4440 C   0  0  0  0  0  0  0  0  0  0  0  0
  -26.5910  -34.8600   22.4090 O   0  0  0  0  0  0  0  0  0  0  0  0
  -25.0140  -34.0810   25.0160 H   0  0  0  0  0  0  0  0  0  0  0  0
  -24.2030  -36.7670   23.0890 C   0  0  0  0  0  1  0  0  0  0  0  0
  -25.4480  -36.3630   23.8960 C   0  0  0  0  0  3  0  0  0  0  0  0
  -27.5950  -37.2420   24.7020 C   0  0  0  0  0  1  0  0  0  0  0  0
  -26.4830  -37.4130   23.7720 N   0  0  0  0  0  0  0  0  0  0  0  0
  -26.0820  -38.3350   23.9230 H   0  0  0  0  0  0  0  0  0  0  0  0
  -26.4050  -31.7450   25.1540 C   0  0  1  0  0  0  0  0  0  0  0  0
  -25.3080  -31.5210   26.2200 C   0  0  0  0  0  1  0  0  0  0  0  0
  -26.9750  -30.3610   24.7630 C   0  0  0  0  0  1  0  0  0  0  0  0
  -27.5580  -32.5330   25.8180 C   0  0  0  0  0  1  0  0  0  0  0  0
  -29.7550  -19.5160   19.8050 C   0  0  0  0  0  2  0  0  0  0  0  0
  -29.7390  -18.2870   20.7830 C   0  0  0  0  0  2  0  0  0  0  0  0
  -30.1970  -16.9830   20.0400 C   0  0  0  0  0  2  0  0  0  0  0  0
  -30.6590  -14.5500   20.3360 C   0  0  0  0  0  0  0  0  0  0  0  0
  -30.3440  -12.3640   19.2400 C   0  0  0  0  0  2  0  0  0  0  0  0
  -29.4040  -12.5810   18.0360 C   0  0  0  0  0  2  0  0  0  0  0  0
  -27.9290  -12.4500   18.4700 C   0  0  0  0  0  2  0  0  0  0  0  0
  -27.6040  -13.2750   19.7460 C   0  0  0  0  0  3  0  0  0  0  0  0
  -28.6710  -13.0730   20.8470 C   0  0  0  0  0  2  0  0  0  0  0  0
  -29.9850  -13.3660   20.2590 N   0  0  0  0  0  0  0  0  0  0  0  0
  -31.8070  -14.6770   19.9030 O   0  0  0  0  0  0  0  0  0  0  0  0
  -29.9260  -15.6490   20.6490 N   0  0  0  0  0  0  0  0  0  0  0  0
  -28.9910  -15.4760   20.9950 H   0  0  0  0  0  0  0  0  0  0  0  0
  -25.2120  -13.8710   20.4830 C   0  0  0  0  0  0  0  0  0  0  0  0
  -24.1500  -13.0960   20.8630 C   0  0  0  0  0  0  0  0  0  0  0  0
  -24.6160  -11.7450   20.8300 C   0  0  0  0  0  0  0  0  0  0  0  0
  -26.2560  -12.9940   20.2410 N   0  0  0  0  0  0  0  0  0  0  0  0
  -25.9030  -11.7080   20.5070 N   0  0  0  0  0  0  0  0  0  0  0  0
  -23.8950  -10.4820   21.0330 C   0  0  0  0  0  0  0  0  0  0  0  0
  -24.3490   -9.5100   21.9540 C   0  0  0  0  0  3  0  0  0  0  0  0
  -23.6240   -8.3140   22.1440 C   0  0  0  0  0  3  0  0  0  0  0  0
  -22.4330   -8.0810   21.4150 C   0  0  0  0  0  0  0  0  0  0  0  0
  -22.0000   -9.0410   20.4840 C   0  0  0  0  0  3  0  0  0  0  0  0
  -22.7240  -10.2290   20.2920 C   0  0  0  0  0  3  0  0  0  0  0  0
  -21.6770   -6.9380   21.5170 O   0  0  0  0  0  0  0  0  0  0  0  0
  -21.6680   -6.1790   22.6590 C   0  0  0  0  0  0  0  0  0  0  0  0
  -21.3000   -6.7210   23.9090 C   0  0  0  0  0  3  0  0  0  0  0  0
  -21.2360   -5.8920   25.0460 C   0  0  0  0  0  3  0  0  0  0  0  0
  -21.5290   -4.5200   24.9330 C   0  0  0  0  0  0  0  0  0  0  0  0
  -21.8930   -3.9770   23.6890 C   0  0  0  0  0  3  0  0  0  0  0  0
  -21.9580   -4.8030   22.5530 C   0  0  0  0  0  0  0  0  0  0  0  0
  -22.2870   -4.2710   21.3510 F   0  0  0  0  0  0  0  0  0  0  0  0
  -21.4610   -3.7200   26.0230 F   0  0  0  0  0  0  0  0  0  0  0  0
  -22.7550  -13.5700   21.1490 C   0  0  0  0  0  0  0  0  0  0  0  0
  -22.0400  -12.8750   22.0240 N   0  0  0  0  0  0  0  0  0  0  0  0
  -22.3090  -14.5930   20.6290 O   0  0  0  0  0  0  0  0  0  0  0  0
  -22.4130  -12.0420   22.4560 H   0  0  0  0  0  0  0  0  0  0  0  0
  -21.1060  -13.1750   22.2640 H   0  0  0  0  0  0  0  0  0  0  0  0
  -25.3680  -15.2430   20.3050 N   0  0  0  0  0  0  0  0  0  0  0  0
  -24.5880  -15.8850   20.4080 H   0  0  0  0  0  0  0  0  0  0  0  0
  -26.2010  -15.6930   19.9470 H   0  0  0  0  0  0  0  0  0  0  0  0
  1  2  1  0
  2  4  1  0
  3  1  1  0
  5  3  1  0
  6  2  1  0
  7  8  1  0
  7  6  1  0
  9 20  2  0
 10  8  1  0
 10 15  1  0
 11 19  1  0
 11 21  1  0
 12 18  1  0
 12 14  1  0
 13 19  1  0
 14 13  1  0
 15 14  2  0
 16 17  1  0
 16 10  2  0
 17 12  2  0
 18 11  1  0
 19  9  1  0
 21 23  2  0
 22 21  1  0
 24 22  1  0
 25 34  2  0
 25 30  1  0
 26 22  1  0
 26 30  1  0
 27 26  1  0
 28 29  1  0
 28 27  1  0
 29 25  1  0
 30 31  2  0
 31 32  1  0
 33 32  2  0
 34 33  1  0
 35  9  1  0
 35 36  1  0
 35 45  1  0
 36 39  1  0
 37 41  1  0
 37 36  1  0
 38 37  2  0
 41 40  1  0
 43 41  1  0
 43 44  1  0
 43 42  1  0
 45 48  1  1
 45 46  1  0
 47 45  1  0
 49  3  1  0
 49 50  1  0
 51 60  1  0
 51 50  1  0
 52 60  1  0
 53 58  1  0
 54 55  1  0
 54 53  1  0
 56 55  1  0
 56 65  1  0
 56 57  1  0
 58 52  1  0
 58 57  1  0
 59 52  2  0
 60 61  1  0
 62 63  2  0
 63 82  1  0
 64 63  1  0
 64 67  1  0
 65 62  1  0
 65 66  1  0
 66 64  2  0
 67 68  1  0
 68 69  2  0
 70 73  1  0
 70 69  1  0
 71 70  2  0
 72 71  1  0
 72 67  2  0
 73 74  1  0
 74 75  1  0
 75 76  2  0
 77 76  1  0
 77 81  1  0
 78 77  2  0
 79 74  2  0
 79 78  1  0
 80 79  1  0
 82 83  1  0
 83 86  1  0
 83 85  1  0
 84 82  2  0
 87 88  1  0
 87 62  1  0
 89 87  1  0
M  ISO  4   7 101   8 101  52 100  60 100
M  END
>  <TORSDO>  (37) 
F 21

>  <SCORE>  (37) 
-13.334

>  <name>  (37) 
36

>  <ligand_id>  (37) 
36

>  <original_smiles>  (37) 
[H]C(N([H])C([H])([H])C([H])([H])Oc1c([H])c([H])c2c(c1[H])C([H])([H])N(C(=O)C([H])(N([H])C(=O)C([H])(N([H])C([H])([H])[H])C([H])([H])[H])C(C([H])([H])[H])(C([H])([H])[H])C([H])([H])[H])C([H])(C(=O)N([H])C1([H])c3c([H])c([H])c([H])c([H])c3C([H])([H])C([H])([H])C1([H])[H])C2([H])[H])=[N+]([H])C([H])([H])C([H])([H])C([H])([H])N([H])C(=O)N1C([H])([H])C([H])([H])C([H])([H])C([H])(n2nc(-c3c([H])c([H])c(Oc4c([H])c([H])c(F)c([H])c4F)c([H])c3[H])c(C(=O)N([H])[H])c2N([H])[H])C1([H])[H]

>  <smiles>  (37) 
[H]C(N([H])C([H])([H])C([H])([H])Oc1c([H])c([H])c2c(c1[H])C([H])([H])N(C(=O)C([H])(N([H])C(=O)C([H])(N([H])C([H])([H])[H])C([H])([H])[H])C(C([H])([H])[H])(C([H])([H])[H])C([H])([H])[H])C([H])(C(=O)N([H])C1([H])c3c([H])c([H])c([H])c([H])c3C([H])([H])C([H])([H])C1([H])[H])C2([H])[H])=[N+]([H])C([H])([H])C([H])([H])C([H])([H])N([H])C(=O)N1C([H])([H])C([H])([H])C([H])([H])C([H])(n2nc(-c3c([H])c([H])c(Oc4c([H])c([H])c(F)c([H])c4F)c([H])c3[H])c(C(=O)N([H])[H])c2N([H])[H])C1([H])[H]

$$$$
37:0:0
     RDKit          3D

 97105  0  0  1  0  0  0  0  0999 V2000
  -28.8170  -22.9890   22.0790 C   0  0  0  0  0  3  0  0  0  0  0  0
  -28.9210  -24.1950   22.7920 C   0  0  0  0  0  3  0  0  0  0  0  0
  -28.6120  -22.9880   20.6840 C   0  0  0  0  0  0  0  0  0  0  0  0
  -28.8150  -25.4410   22.1430 C   0  0  0  0  0  0  0  0  0  0  0  0
  -28.4580  -24.2550   20.0210 C   0  0  0  0  0  0  0  0  0  0  0  0
  -28.5250  -25.4870   20.7510 C   0  0  0  0  0  0  0  0  0  0  0  0
  -28.2740  -24.3180   18.5080 C   0  0  0  0  0  1  0  0  0  0  0  0
  -29.0390  -26.6760   22.9720 C   0  0  0  0  0  0  0  0  0  0  0  0
  -29.8860  -27.5710   22.4740 N   0  0  0  0  0  0  0  0  0  0  0  0
  -28.5470  -26.8040   24.0900 O   0  0  0  0  0  0  0  0  0  0  0  0
  -30.2740  -27.4250   21.5530 H   0  0  0  0  0  0  0  0  0  0  0  0
  -30.1270  -28.4000   22.9950 H   0  0  0  0  0  0  0  0  0  0  0  0
  -28.4800  -21.6420   19.9990 C   0  0  0  0  0  0  0  0  0  0  0  0
  -27.6130  -21.4250   19.1490 O   0  0  0  0  0  0  0  0  0  0  0  0
  -29.4980  -20.5110   20.3440 C   0  0  0  0  0  3  0  0  0  0  0  0
  -29.0180  -19.0350   20.1060 C   0  0  0  0  0  3  0  0  0  0  0  0
  -30.1460  -17.9520   19.9970 C   0  0  0  0  0  2  0  0  0  0  0  0
  -30.3340  -16.9600   21.1900 C   0  0  0  0  0  2  0  0  0  0  0  0
  -30.6140  -14.5350   20.4680 C   0  0  0  0  0  0  0  0  0  0  0  0
  -30.3390  -12.3520   19.3410 C   0  0  0  0  0  2  0  0  0  0  0  0
  -29.4050  -12.5390   18.1280 C   0  0  0  0  0  2  0  0  0  0  0  0
  -27.9300  -12.3930   18.5510 C   0  0  0  0  0  2  0  0  0  0  0  0
  -27.5790  -13.2420   19.8020 C   0  0  0  0  0  3  0  0  0  0  0  0
  -28.6290  -13.0420   20.9190 C   0  0  0  0  0  2  0  0  0  0  0  0
  -29.9530  -13.3500   20.3510 N   0  0  0  0  0  0  0  0  0  0  0  0
  -31.7600  -14.7060   20.0410 O   0  0  0  0  0  0  0  0  0  0  0  0
  -29.8850  -15.5690   20.9500 N   0  0  0  0  0  0  0  0  0  0  0  0
  -28.9410  -15.3440   21.2290 H   0  0  0  0  0  0  0  0  0  0  0  0
  -25.1760  -13.8490   20.4920 C   0  0  0  0  0  0  0  0  0  0  0  0
  -24.1090  -13.0770   20.8660 C   0  0  0  0  0  0  0  0  0  0  0  0
  -24.5760  -11.7270   20.8540 C   0  0  0  0  0  0  0  0  0  0  0  0
  -26.2250  -12.9690   20.2780 N   0  0  0  0  0  0  0  0  0  0  0  0
  -25.8680  -11.6890   20.5530 N   0  0  0  0  0  0  0  0  0  0  0  0
  -23.8540  -10.4650   21.0540 C   0  0  0  0  0  0  0  0  0  0  0  0
  -24.2930   -9.5030   21.9900 C   0  0  0  0  0  3  0  0  0  0  0  0
  -23.5700   -8.3060   22.1780 C   0  0  0  0  0  3  0  0  0  0  0  0
  -22.3940   -8.0610   21.4290 C   0  0  0  0  0  0  0  0  0  0  0  0
  -21.9740   -9.0130   20.4830 C   0  0  0  0  0  3  0  0  0  0  0  0
  -22.6980  -10.2010   20.2930 C   0  0  0  0  0  3  0  0  0  0  0  0
  -21.6420   -6.9160   21.5260 O   0  0  0  0  0  0  0  0  0  0  0  0
  -21.6140   -6.1680   22.6770 C   0  0  0  0  0  0  0  0  0  0  0  0
  -21.2120   -6.7190   23.9130 C   0  0  0  0  0  3  0  0  0  0  0  0
  -21.1310   -5.8990   25.0560 C   0  0  0  0  0  3  0  0  0  0  0  0
  -21.4420   -4.5280   24.9630 C   0  0  0  0  0  0  0  0  0  0  0  0
  -21.8350   -3.9770   23.7310 C   0  0  0  0  0  3  0  0  0  0  0  0
  -21.9190   -4.7950   22.5910 C   0  0  0  0  0  0  0  0  0  0  0  0
  -22.2780   -4.2540   21.4020 F   0  0  0  0  0  0  0  0  0  0  0  0
  -21.3560   -3.7370   26.0580 F   0  0  0  0  0  0  0  0  0  0  0  0
  -22.7090  -13.5540   21.1210 C   0  0  0  0  0  0  0  0  0  0  0  0
  -21.9760  -12.8650   21.9900 N   0  0  0  0  0  0  0  0  0  0  0  0
  -22.2710  -14.5720   20.5870 O   0  0  0  0  0  0  0  0  0  0  0  0
  -22.3420  -12.0410   22.4440 H   0  0  0  0  0  0  0  0  0  0  0  0
  -21.0360  -13.1650   22.2030 H   0  0  0  0  0  0  0  0  0  0  0  0
  -25.3380  -15.2180   20.2980 N   0  0  0  0  0  0  0  0  0  0  0  0
  -24.5650  -15.8690   20.3940 H   0  0  0  0  0  0  0  0  0  0  0  0
  -26.1810  -15.6590   19.9520 H   0  0  0  0  0  0  0  0  0  0  0  0
  -28.4080  -26.7090   20.0960 O   0  0  0  0  0  0  0  0  0  0  0  0
  -24.5930  -31.8990   23.2400 C   0  0  0  0  0  0  0  0  0  0  0  0
  -27.2300  -27.4360   20.1640 C   0  0  0  0  0  0  0  0  0  0  0  0
  -23.3780  -30.4870   21.6130 C   0  0  0  0  0  3  0  0  0  0  0  0
  -24.8260  -28.9430   20.1870 C   0  0  0  0  0  0  0  0  0  0  0  0
  -25.9020  -30.8470   21.3970 C   0  0  0  0  0  2  0  0  0  0  0  0
  -25.9880  -29.4730   20.7620 C   0  0  0  0  0  0  0  0  0  0  0  0
  -27.1930  -28.7320   20.7370 C   0  0  0  0  0  3  0  0  0  0  0  0
  -26.0510  -26.9220   19.5880 C   0  0  0  0  0  3  0  0  0  0  0  0
  -24.8530  -27.6670   19.5950 C   0  0  0  0  0  3  0  0  0  0  0  0
  -23.5820  -29.8010   20.2360 C   0  0  0  0  0  2  0  0  0  0  0  0
  -24.6440  -31.0900   22.1440 N   0  0  0  0  0  0  0  0  0  0  0  0
  -23.5090  -32.1920   23.7650 O   0  0  0  0  0  0  0  0  0  0  0  0
  -22.7340  -29.4690   22.5810 C   0  0  0  0  0  0  0  0  0  0  0  0
  -21.4100  -29.2800   22.4570 N   0  0  0  0  0  0  0  0  0  0  0  0
  -23.4220  -28.8500   23.3970 O   0  0  0  0  0  0  0  0  0  0  0  0
  -20.9170  -29.8330   21.7700 H   0  0  0  0  0  0  0  0  0  0  0  0
  -18.0420  -28.0660   22.9590 C   0  0  0  0  0  0  0  0  0  0  0  0
  -20.5980  -28.3390   23.2300 C   0  0  0  0  0  3  0  0  0  0  0  0
  -20.7070  -26.9080   22.6550 C   0  0  0  0  0  2  0  0  0  0  0  0
  -19.6080  -26.5790   21.6400 C   0  0  0  0  0  2  0  0  0  0  0  0
  -18.2260  -26.7160   22.2860 C   0  0  0  0  0  2  0  0  0  0  0  0
  -19.1560  -28.8340   23.3880 C   0  0  0  0  0  0  0  0  0  0  0  0
  -18.9320  -30.0970   23.9780 C   0  0  0  0  0  3  0  0  0  0  0  0
  -17.6240  -30.5940   24.1390 C   0  0  0  0  0  3  0  0  0  0  0  0
  -16.5250  -29.8220   23.7270 C   0  0  0  0  0  3  0  0  0  0  0  0
  -16.7340  -28.5600   23.1440 C   0  0  0  0  0  3  0  0  0  0  0  0
  -25.8820  -32.5220   23.8620 C   0  0  0  0  0  3  0  0  0  0  0  0
  -25.5770  -33.9200   24.1950 N   0  0  0  0  0  0  0  0  0  0  0  0
  -25.9060  -34.9720   23.4340 C   0  0  0  0  0  0  0  0  0  0  0  0
  -26.5720  -34.8670   22.4000 O   0  0  0  0  0  0  0  0  0  0  0  0
  -24.9820  -34.0730   24.9960 H   0  0  0  0  0  0  0  0  0  0  0  0
  -24.1760  -36.7640   23.0810 C   0  0  0  0  0  1  0  0  0  0  0  0
  -25.4200  -36.3610   23.8910 C   0  0  0  0  0  3  0  0  0  0  0  0
  -27.5600  -37.2450   24.7110 C   0  0  0  0  0  1  0  0  0  0  0  0
  -26.4530  -37.4140   23.7720 N   0  0  0  0  0  0  0  0  0  0  0  0
  -26.0470  -38.3340   23.9210 H   0  0  0  0  0  0  0  0  0  0  0  0
  -26.4070  -31.7460   25.1320 C   0  0  1  0  0  0  0  0  0  0  0  0
  -25.3200  -31.5050   26.2050 C   0  0  0  0  0  1  0  0  0  0  0  0
  -26.9840  -30.3680   24.7330 C   0  0  0  0  0  1  0  0  0  0  0  0
  -27.5640  -32.5360   25.7890 C   0  0  0  0  0  1  0  0  0  0  0  0
  1  2  1  0
  3  1  2  0
  4  2  2  0
  4  8  1  0
  5  3  1  0
  5  6  2  0
  6  4  1  0
  7  5  1  0
  8 10  2  0
  9  8  1  0
  9 12  1  0
 11  9  1  0
 13 15  1  0
 13  3  1  0
 14 13  2  0
 16 15  2  0
 17 16  1  0
 17 18  1  0
 19 27  1  0
 20 25  1  0
 21 22  1  0
 21 20  1  0
 23 22  1  0
 23 32  1  0
 23 24  1  0
 25 19  1  0
 25 24  1  0
 26 19  2  0
 27 18  1  0
 27 28  1  0
 29 30  2  0
 30 49  1  0
 31 30  1  0
 31 34  1  0
 32 29  1  0
 32 33  1  0
 33 31  2  0
 34 35  1  0
 35 36  2  0
 37 40  1  0
 37 36  1  0
 38 37  2  0
 39 38  1  0
 39 34  2  0
 40 41  1  0
 41 42  1  0
 42 43  2  0
 44 43  1  0
 44 48  1  0
 45 44  2  0
 46 41  2  0
 46 45  1  0
 47 46  1  0
 49 50  1  0
 50 53  1  0
 50 52  1  0
 51 49  2  0
 54 55  1  0
 54 29  1  0
 56 54  1  0
 57 59  1  0
 57  6  1  0
 58 69  2  0
 59 64  1  0
 60 68  1  0
 60 70  1  0
 61 67  1  0
 61 63  1  0
 62 68  1  0
 63 62  1  0
 64 63  2  0
 65 66  1  0
 65 59  2  0
 66 61  2  0
 67 60  1  0
 68 58  1  0
 70 72  2  0
 71 70  1  0
 73 71  1  0
 74 83  2  0
 74 79  1  0
 75 71  1  0
 75 79  1  0
 76 75  1  0
 77 78  1  0
 77 76  1  0
 78 74  1  0
 79 80  2  0
 80 81  1  0
 82 81  2  0
 83 82  1  0
 84 58  1  0
 84 85  1  0
 84 94  1  0
 85 88  1  0
 86 90  1  0
 86 85  1  0
 87 86  2  0
 90 89  1  0
 92 90  1  0
 92 93  1  0
 92 91  1  0
 94 97  1  1
 94 95  1  0
 96 94  1  0
M  ISO  4   6 101  19 100  27 100  57 101
M  END
>  <TORSDO>  (38) 
F 22

>  <SCORE>  (38) 
-13.371

>  <name>  (38) 
37

>  <ligand_id>  (38) 
37

>  <original_smiles>  (38) 
[H]c1c([H])c([H])c2c(c1[H])C([H])([H])C([H])([H])C([H])([H])C2([H])N([H])C(=O)C1([H])N(C(=O)C([H])(N([H])C(=O)C([H])(N([H])C([H])([H])[H])C([H])([H])[H])C(C([H])([H])[H])(C([H])([H])[H])C([H])([H])[H])C([H])([H])c2c([H])c(Oc3c(C(=O)N([H])[H])c([H])c([H])c(C(=O)C([H])([H])C([H])([H])C([H])([H])C([H])([H])N([H])C(=O)N4C([H])([H])C([H])([H])C([H])([H])C([H])(n5nc(-c6c([H])c([H])c(Oc7c([H])c([H])c(F)c([H])c7F)c([H])c6[H])c(C(=O)N([H])[H])c5N([H])[H])C4([H])[H])c3C([H])([H])[H])c([H])c([H])c2C1([H])[H]

>  <smiles>  (38) 
[H]c1c([H])c([H])c2c(c1[H])C([H])([H])C([H])([H])C([H])([H])C2([H])N([H])C(=O)C1([H])N(C(=O)C([H])(N([H])C(=O)C([H])(N([H])C([H])([H])[H])C([H])([H])[H])C(C([H])([H])[H])(C([H])([H])[H])C([H])([H])[H])C([H])([H])c2c([H])c(Oc3c(C(=O)N([H])[H])c([H])c([H])c(C(=O)C([H])([H])C([H])([H])C([H])([H])C([H])([H])N([H])C(=O)N4C([H])([H])C([H])([H])C([H])([H])C([H])(n5nc(-c6c([H])c([H])c(Oc7c([H])c([H])c(F)c([H])c7F)c([H])c6[H])c(C(=O)N([H])[H])c5N([H])[H])C4([H])[H])c3C([H])([H])[H])c([H])c([H])c2C1([H])[H]

$$$$
38:0:0
     RDKit          3D

 91 99  0  0  1  0  0  0  0  0999 V2000
  -29.5280  -21.5220   20.1940 C   0  0  0  0  0  2  0  0  0  0  0  0
  -33.4670  -19.7150   20.8630 C   0  0  0  0  0  3  0  0  0  0  0  0
  -33.2860  -21.1030   20.8570 C   0  0  0  0  0  3  0  0  0  0  0  0
  -32.3690  -18.8650   20.6530 C   0  0  0  0  0  3  0  0  0  0  0  0
  -32.0040  -21.6350   20.6390 C   0  0  0  0  0  3  0  0  0  0  0  0
  -31.0580  -19.3690   20.4370 C   0  0  0  0  0  0  0  0  0  0  0  0
  -30.8780  -20.8030   20.4400 C   0  0  0  0  0  0  0  0  0  0  0  0
  -29.9270  -18.3920   20.2170 C   0  0  0  0  0  3  0  0  0  0  0  0
  -29.6900  -17.0820   20.5600 C   0  0  0  0  0  3  0  0  0  0  0  0
  -29.9990  -15.7380   21.2850 C   0  0  0  0  0  2  0  0  0  0  0  0
  -30.6530  -14.5410   20.5190 C   0  0  0  0  0  0  0  0  0  0  0  0
  -30.3850  -12.3860   19.3150 C   0  0  0  0  0  2  0  0  0  0  0  0
  -29.4330  -12.5880   18.1160 C   0  0  0  0  0  2  0  0  0  0  0  0
  -27.9580  -12.4450   18.5460 C   0  0  0  0  0  2  0  0  0  0  0  0
  -27.6280  -13.2670   19.8230 C   0  0  0  0  0  3  0  0  0  0  0  0
  -28.6850  -12.9940   20.9160 C   0  0  0  0  0  2  0  0  0  0  0  0
  -30.0020  -13.3490   20.3630 N   0  0  0  0  0  0  0  0  0  0  0  0
  -31.7600  -14.7360   20.0070 O   0  0  0  0  0  0  0  0  0  0  0  0
  -25.2290  -13.8980   20.5160 C   0  0  0  0  0  0  0  0  0  0  0  0
  -24.1520  -13.1360   20.8810 C   0  0  0  0  0  0  0  0  0  0  0  0
  -24.6010  -11.7800   20.8550 C   0  0  0  0  0  0  0  0  0  0  0  0
  -26.2680  -13.0070   20.2940 N   0  0  0  0  0  0  0  0  0  0  0  0
  -25.8920  -11.7280   20.5530 N   0  0  0  0  0  0  0  0  0  0  0  0
  -23.8640  -10.5250   21.0450 C   0  0  0  0  0  0  0  0  0  0  0  0
  -24.2850   -9.5560   21.9810 C   0  0  0  0  0  3  0  0  0  0  0  0
  -23.5500   -8.3640   22.1600 C   0  0  0  0  0  3  0  0  0  0  0  0
  -22.3800   -8.1330   21.3980 C   0  0  0  0  0  0  0  0  0  0  0  0
  -21.9780   -9.0900   20.4490 C   0  0  0  0  0  3  0  0  0  0  0  0
  -22.7150  -10.2720   20.2710 C   0  0  0  0  0  3  0  0  0  0  0  0
  -21.6180   -6.9920   21.4820 O   0  0  0  0  0  0  0  0  0  0  0  0
  -21.5540   -6.2520   22.6360 C   0  0  0  0  0  0  0  0  0  0  0  0
  -21.1170   -6.8130   23.8560 C   0  0  0  0  0  3  0  0  0  0  0  0
  -20.9990   -5.9990   25.0010 C   0  0  0  0  0  3  0  0  0  0  0  0
  -21.3110   -4.6280   24.9280 C   0  0  0  0  0  0  0  0  0  0  0  0
  -21.7430   -4.0680   23.7120 C   0  0  0  0  0  3  0  0  0  0  0  0
  -21.8600   -4.8780   22.5690 C   0  0  0  0  0  0  0  0  0  0  0  0
  -22.2560   -4.3300   21.3960 F   0  0  0  0  0  0  0  0  0  0  0  0
  -21.1930   -3.8460   26.0250 F   0  0  0  0  0  0  0  0  0  0  0  0
  -22.7580  -13.6240   21.1500 C   0  0  0  0  0  0  0  0  0  0  0  0
  -22.0210  -12.9340   22.0120 N   0  0  0  0  0  0  0  0  0  0  0  0
  -22.3300  -14.6540   20.6310 O   0  0  0  0  0  0  0  0  0  0  0  0
  -22.3780  -12.1000   22.4560 H   0  0  0  0  0  0  0  0  0  0  0  0
  -21.0850  -13.2450   22.2360 H   0  0  0  0  0  0  0  0  0  0  0  0
  -25.4100  -15.2670   20.3390 N   0  0  0  0  0  0  0  0  0  0  0  0
  -24.6540  -15.9350   20.4520 H   0  0  0  0  0  0  0  0  0  0  0  0
  -26.2760  -15.6980   20.0440 H   0  0  0  0  0  0  0  0  0  0  0  0
  -29.2510  -22.8320   21.0230 C   0  0  0  0  0  2  0  0  0  0  0  0
  -29.3110  -24.2150   20.3070 C   0  0  0  0  0  0  0  0  0  0  0  0
  -30.2830  -24.5350   19.6160 O   0  0  0  0  0  0  0  0  0  0  0  0
  -28.0940  -25.1670   20.4870 C   0  0  0  0  0  2  0  0  0  0  0  0
  -28.3510  -26.5820   20.2230 O   0  0  0  0  0  0  0  0  0  0  0  0
  -24.5640  -31.8850   23.2560 C   0  0  0  0  0  0  0  0  0  0  0  0
  -27.2120  -27.3830   20.1970 C   0  0  0  0  0  0  0  0  0  0  0  0
  -23.3680  -30.4780   21.6200 C   0  0  0  0  0  3  0  0  0  0  0  0
  -24.8280  -28.9390   20.2020 C   0  0  0  0  0  0  0  0  0  0  0  0
  -25.9040  -30.8160   21.4430 C   0  0  0  0  0  2  0  0  0  0  0  0
  -25.9910  -29.4440   20.7970 C   0  0  0  0  0  0  0  0  0  0  0  0
  -27.1870  -28.6760   20.7890 C   0  0  0  0  0  3  0  0  0  0  0  0
  -26.0280  -26.9210   19.5770 C   0  0  0  0  0  3  0  0  0  0  0  0
  -24.8450  -27.6780   19.5880 C   0  0  0  0  0  3  0  0  0  0  0  0
  -23.5860  -29.8010   20.2420 C   0  0  0  0  0  2  0  0  0  0  0  0
  -24.6310  -31.0710   22.1650 N   0  0  0  0  0  0  0  0  0  0  0  0
  -23.4750  -32.1830   23.7650 O   0  0  0  0  0  0  0  0  0  0  0  0
  -22.7090  -29.4560   22.5760 C   0  0  0  0  0  0  0  0  0  0  0  0
  -21.3840  -29.2750   22.4450 N   0  0  0  0  0  0  0  0  0  0  0  0
  -23.3880  -28.8290   23.3940 O   0  0  0  0  0  0  0  0  0  0  0  0
  -20.8960  -29.8330   21.7570 H   0  0  0  0  0  0  0  0  0  0  0  0
  -18.0050  -28.0920   22.9450 C   0  0  0  0  0  0  0  0  0  0  0  0
  -20.5640  -28.3360   23.2120 C   0  0  0  0  0  3  0  0  0  0  0  0
  -20.6590  -26.9080   22.6280 C   0  0  0  0  0  2  0  0  0  0  0  0
  -19.5540  -26.5950   21.6150 C   0  0  0  0  0  2  0  0  0  0  0  0
  -18.1730  -26.7440   22.2620 C   0  0  0  0  0  2  0  0  0  0  0  0
  -19.1270  -28.8450   23.3770 C   0  0  0  0  0  0  0  0  0  0  0  0
  -18.9150  -30.1060   23.9750 C   0  0  0  0  0  3  0  0  0  0  0  0
  -17.6130  -30.6140   24.1460 C   0  0  0  0  0  3  0  0  0  0  0  0
  -16.5050  -29.8560   23.7290 C   0  0  0  0  0  3  0  0  0  0  0  0
  -16.7010  -28.5970   23.1350 C   0  0  0  0  0  3  0  0  0  0  0  0
  -25.8470  -32.5090   23.8910 C   0  0  0  0  0  3  0  0  0  0  0  0
  -25.5410  -33.9090   24.2150 N   0  0  0  0  0  0  0  0  0  0  0  0
  -25.8690  -34.9570   23.4470 C   0  0  0  0  0  0  0  0  0  0  0  0
  -26.5360  -34.8470   22.4150 O   0  0  0  0  0  0  0  0  0  0  0  0
  -24.9490  -34.0680   25.0170 H   0  0  0  0  0  0  0  0  0  0  0  0
  -24.1390  -36.7450   23.0840 C   0  0  0  0  0  1  0  0  0  0  0  0
  -25.3810  -36.3460   23.8970 C   0  0  0  0  0  3  0  0  0  0  0  0
  -27.5150  -37.2380   24.7210 C   0  0  0  0  0  1  0  0  0  0  0  0
  -26.4130  -37.3990   23.7770 N   0  0  0  0  0  0  0  0  0  0  0  0
  -26.0050  -38.3190   23.9190 H   0  0  0  0  0  0  0  0  0  0  0  0
  -26.3530  -31.7400   25.1730 C   0  0  1  0  0  0  0  0  0  0  0  0
  -25.2510  -31.5080   26.2330 C   0  0  0  0  0  1  0  0  0  0  0  0
  -26.9380  -30.3600   24.7900 C   0  0  0  0  0  1  0  0  0  0  0  0
  -27.4990  -32.5360   25.8420 C   0  0  0  0  0  1  0  0  0  0  0  0
  1  7  1  0
  1 47  1  0
  3  2  1  0
  4  2  2  0
  5  3  2  0
  6  7  2  0
  6  4  1  0
  7  5  1  0
  8  6  1  0
  8  9  2  0
  9 10  1  0
 11 10  1  0
 12 17  1  0
 13 14  1  0
 13 12  1  0
 15 14  1  0
 15 22  1  0
 15 16  1  0
 17 11  1  0
 17 16  1  0
 18 11  2  0
 19 20  2  0
 20 39  1  0
 21 20  1  0
 21 24  1  0
 22 19  1  0
 22 23  1  0
 23 21  2  0
 24 25  1  0
 25 26  2  0
 27 30  1  0
 27 26  1  0
 28 27  2  0
 29 28  1  0
 29 24  2  0
 30 31  1  0
 31 32  1  0
 32 33  2  0
 34 33  1  0
 34 38  1  0
 35 34  2  0
 36 31  2  0
 36 35  1  0
 37 36  1  0
 39 40  1  0
 40 43  1  0
 40 42  1  0
 41 39  2  0
 44 45  1  0
 44 19  1  0
 46 44  1  0
 48 50  1  0
 48 47  1  0
 49 48  2  0
 51 50  1  0
 52 63  2  0
 53 51  1  0
 53 58  1  0
 54 62  1  0
 54 64  1  0
 55 61  1  0
 55 57  1  0
 56 62  1  0
 57 56  1  0
 58 57  2  0
 59 60  1  0
 59 53  2  0
 60 55  2  0
 61 54  1  0
 62 52  1  0
 64 66  2  0
 65 64  1  0
 67 65  1  0
 68 77  2  0
 68 73  1  0
 69 65  1  0
 69 73  1  0
 70 69  1  0
 71 72  1  0
 71 70  1  0
 72 68  1  0
 73 74  2  0
 74 75  1  0
 76 75  2  0
 77 76  1  0
 78 52  1  0
 78 79  1  0
 78 88  1  0
 79 82  1  0
 80 84  1  0
 80 79  1  0
 81 80  2  0
 84 83  1  0
 86 84  1  0
 86 87  1  0
 86 85  1  0
 88 91  1  1
 88 89  1  0
 90 88  1  0
M  ISO  4  10 100  11 100  50 101  51 101
M  END
>  <TORSDO>  (39) 
F 22

>  <SCORE>  (39) 
-13.317

>  <name>  (39) 
38

>  <ligand_id>  (39) 
38

>  <original_smiles>  (39) 
[H]C(=C([H])C([H])([H])C(=O)N1C([H])([H])C([H])([H])C([H])([H])C([H])(n2nc(-c3c([H])c([H])c(Oc4c([H])c([H])c(F)c([H])c4F)c([H])c3[H])c(C(=O)N([H])[H])c2N([H])[H])C1([H])[H])c1c([H])c([H])c([H])c([H])c1C([H])([H])C([H])([H])C(=O)C([H])([H])Oc1c([H])c([H])c2c(c1[H])C([H])([H])N(C(=O)C([H])(N([H])C(=O)C([H])(N([H])C([H])([H])[H])C([H])([H])[H])C(C([H])([H])[H])(C([H])([H])[H])C([H])([H])[H])C([H])(C(=O)N([H])C1([H])c3c([H])c([H])c([H])c([H])c3C([H])([H])C([H])([H])C1([H])[H])C2([H])[H]

>  <smiles>  (39) 
[H]C(=C([H])C([H])([H])C(=O)N1C([H])([H])C([H])([H])C([H])([H])C([H])(n2nc(-c3c([H])c([H])c(Oc4c([H])c([H])c(F)c([H])c4F)c([H])c3[H])c(C(=O)N([H])[H])c2N([H])[H])C1([H])[H])c1c([H])c([H])c([H])c([H])c1C([H])([H])C([H])([H])C(=O)C([H])([H])Oc1c([H])c([H])c2c(c1[H])C([H])([H])N(C(=O)C([H])(N([H])C(=O)C([H])(N([H])C([H])([H])[H])C([H])([H])[H])C(C([H])([H])[H])(C([H])([H])[H])C([H])([H])[H])C([H])(C(=O)N([H])C1([H])c3c([H])c([H])c([H])c([H])c3C([H])([H])C([H])([H])C1([H])[H])C2([H])[H]

$$$$
39:0:0
     RDKit          3D

 92101  0  0  1  0  0  0  0  0999 V2000
  -27.6520  -22.2770   19.3480 C   0  0  0  0  0  2  0  0  0  0  0  0
  -26.9970  -23.1130   20.4650 C   0  0  0  0  0  2  0  0  0  0  0  0
  -29.9860  -23.2060   19.9010 C   0  0  0  0  0  2  0  0  0  0  0  0
  -29.1360  -21.9290   19.6090 C   0  0  0  0  0  3  0  0  0  0  0  0
  -29.2700  -24.4100   20.5360 C   0  0  0  0  0  3  0  0  0  0  0  0
  -28.3050  -25.2970   19.7480 C   0  0  0  0  0  3  0  0  0  0  0  0
  -27.7850  -24.3650   20.8360 C   0  0  1  0  0  0  0  0  0  0  0  0
  -27.2890  -24.9210   22.1640 C   0  0  0  0  0  1  0  0  0  0  0  0
  -29.3090  -20.7850   20.6480 C   0  0  0  0  0  0  0  0  0  0  0  0
  -29.5840  -19.5460   20.1890 N   0  0  0  0  0  0  0  0  0  0  0  0
  -29.1850  -21.0170   21.8520 O   0  0  0  0  0  0  0  0  0  0  0  0
  -29.6730  -19.4370   19.1870 H   0  0  0  0  0  0  0  0  0  0  0  0
  -29.6660  -18.3230   21.0070 C   0  0  0  0  0  2  0  0  0  0  0  0
  -30.2510  -17.1040   20.2400 C   0  0  0  0  0  2  0  0  0  0  0  0
  -30.1180  -15.7460   20.9990 C   0  0  0  0  0  2  0  0  0  0  0  0
  -30.7490  -14.5330   20.2610 C   0  0  0  0  0  0  0  0  0  0  0  0
  -30.4110  -12.3930   19.0660 C   0  0  0  0  0  2  0  0  0  0  0  0
  -29.4370  -12.6290   17.8930 C   0  0  0  0  0  2  0  0  0  0  0  0
  -27.9720  -12.5080   18.3590 C   0  0  0  0  0  2  0  0  0  0  0  0
  -27.6840  -13.3200   19.6490 C   0  0  0  0  0  3  0  0  0  0  0  0
  -28.7650  -13.0430   20.7180 C   0  0  0  0  0  2  0  0  0  0  0  0
  -30.0730  -13.3560   20.1260 N   0  0  0  0  0  0  0  0  0  0  0  0
  -31.8490  -14.7070   19.7260 O   0  0  0  0  0  0  0  0  0  0  0  0
  -25.3050  -13.9530   20.4020 C   0  0  0  0  0  0  0  0  0  0  0  0
  -24.2380  -13.1930   20.7970 C   0  0  0  0  0  0  0  0  0  0  0  0
  -24.6850  -11.8360   20.7640 C   0  0  0  0  0  0  0  0  0  0  0  0
  -26.3380  -13.0610   20.1560 N   0  0  0  0  0  0  0  0  0  0  0  0
  -25.9680  -11.7840   20.4290 N   0  0  0  0  0  0  0  0  0  0  0  0
  -23.9510  -10.5820   20.9770 C   0  0  0  0  0  0  0  0  0  0  0  0
  -24.4000   -9.6120   21.9000 C   0  0  0  0  0  3  0  0  0  0  0  0
  -23.6680   -8.4220   22.0990 C   0  0  0  0  0  3  0  0  0  0  0  0
  -22.4730   -8.1940   21.3760 C   0  0  0  0  0  0  0  0  0  0  0  0
  -22.0430   -9.1530   20.4420 C   0  0  0  0  0  3  0  0  0  0  0  0
  -22.7760  -10.3350   20.2410 C   0  0  0  0  0  3  0  0  0  0  0  0
  -21.7090   -7.0570   21.4860 O   0  0  0  0  0  0  0  0  0  0  0  0
  -21.6870   -6.3150   22.6400 C   0  0  0  0  0  0  0  0  0  0  0  0
  -21.3130   -6.8760   23.8800 C   0  0  0  0  0  3  0  0  0  0  0  0
  -21.2360   -6.0610   25.0280 C   0  0  0  0  0  3  0  0  0  0  0  0
  -21.5220   -4.6860   24.9360 C   0  0  0  0  0  0  0  0  0  0  0  0
  -21.8890   -4.1240   23.7000 C   0  0  0  0  0  3  0  0  0  0  0  0
  -21.9680   -4.9360   22.5550 C   0  0  0  0  0  0  0  0  0  0  0  0
  -22.3010   -4.3850   21.3630 F   0  0  0  0  0  0  0  0  0  0  0  0
  -21.4400   -3.9020   26.0360 F   0  0  0  0  0  0  0  0  0  0  0  0
  -22.8510  -13.6840   21.0980 C   0  0  0  0  0  0  0  0  0  0  0  0
  -22.1360  -13.0010   21.9860 N   0  0  0  0  0  0  0  0  0  0  0  0
  -22.4090  -14.7100   20.5810 O   0  0  0  0  0  0  0  0  0  0  0  0
  -22.5060  -12.1700   22.4260 H   0  0  0  0  0  0  0  0  0  0  0  0
  -21.2080  -13.3120   22.2300 H   0  0  0  0  0  0  0  0  0  0  0  0
  -25.4780  -15.3210   20.2130 N   0  0  0  0  0  0  0  0  0  0  0  0
  -24.7180  -15.9830   20.3350 H   0  0  0  0  0  0  0  0  0  0  0  0
  -26.3280  -15.7520   19.8730 H   0  0  0  0  0  0  0  0  0  0  0  0
  -28.3750  -26.7020   20.0740 O   0  0  0  0  0  0  0  0  0  0  0  0
  -24.6020  -31.8850   23.1920 C   0  0  0  0  0  0  0  0  0  0  0  0
  -27.2040  -27.4410   20.0480 C   0  0  0  0  0  0  0  0  0  0  0  0
  -23.3780  -30.4890   21.5610 C   0  0  0  0  0  3  0  0  0  0  0  0
  -24.8120  -28.9650   20.1010 C   0  0  0  0  0  0  0  0  0  0  0  0
  -25.9040  -30.8420   21.3400 C   0  0  0  0  0  2  0  0  0  0  0  0
  -25.9790  -29.4780   20.6810 C   0  0  0  0  0  0  0  0  0  0  0  0
  -27.1770  -28.7230   20.6500 C   0  0  0  0  0  3  0  0  0  0  0  0
  -26.0160  -26.9500   19.4590 C   0  0  0  0  0  3  0  0  0  0  0  0
  -24.8260  -27.7020   19.4860 C   0  0  0  0  0  3  0  0  0  0  0  0
  -23.5700  -29.8240   20.1740 C   0  0  0  0  0  2  0  0  0  0  0  0
  -24.6480  -31.0830   22.0910 N   0  0  0  0  0  0  0  0  0  0  0  0
  -23.5210  -32.1770   23.7230 O   0  0  0  0  0  0  0  0  0  0  0  0
  -22.7380  -29.4590   22.5220 C   0  0  0  0  0  0  0  0  0  0  0  0
  -21.4110  -29.2810   22.4100 N   0  0  0  0  0  0  0  0  0  0  0  0
  -23.4300  -28.8270   23.3220 O   0  0  0  0  0  0  0  0  0  0  0  0
  -20.9140  -29.8440   21.7340 H   0  0  0  0  0  0  0  0  0  0  0  0
  -18.0420  -28.0830   22.9330 C   0  0  0  0  0  0  0  0  0  0  0  0
  -20.6020  -28.3370   23.1810 C   0  0  0  0  0  3  0  0  0  0  0  0
  -20.6990  -26.9110   22.5900 C   0  0  0  0  0  2  0  0  0  0  0  0
  -19.5850  -26.5980   21.5850 C   0  0  0  0  0  2  0  0  0  0  0  0
  -18.2100  -26.7390   22.2450 C   0  0  0  0  0  2  0  0  0  0  0  0
  -19.1660  -28.8390   23.3590 C   0  0  0  0  0  0  0  0  0  0  0  0
  -18.9550  -30.0980   23.9630 C   0  0  0  0  0  3  0  0  0  0  0  0
  -17.6520  -30.6000   24.1450 C   0  0  0  0  0  3  0  0  0  0  0  0
  -16.5430  -29.8400   23.7370 C   0  0  0  0  0  3  0  0  0  0  0  0
  -16.7390  -28.5840   23.1350 C   0  0  0  0  0  3  0  0  0  0  0  0
  -25.8970  -32.4990   23.8120 C   0  0  0  0  0  3  0  0  0  0  0  0
  -26.4240  -31.7140   25.0750 C   0  0  1  0  0  0  0  0  0  0  0  0
  -25.3410  -31.4700   26.1510 C   0  0  0  0  0  1  0  0  0  0  0  0
  -27.0000  -30.3390   24.6620 C   0  0  0  0  0  1  0  0  0  0  0  0
  -27.5870  -32.4980   25.7290 C   0  0  0  0  0  1  0  0  0  0  0  0
  -25.5970  -33.8950   24.1580 N   0  0  0  0  0  0  0  0  0  0  0  0
  -25.9220  -34.9510   23.4010 C   0  0  0  0  0  0  0  0  0  0  0  0
  -26.5780  -34.8530   22.3600 O   0  0  0  0  0  0  0  0  0  0  0  0
  -25.0120  -34.0460   24.9660 H   0  0  0  0  0  0  0  0  0  0  0  0
  -24.1890  -36.7450   23.0820 C   0  0  0  0  0  1  0  0  0  0  0  0
  -25.4420  -36.3360   23.8720 C   0  0  0  0  0  3  0  0  0  0  0  0
  -27.5910  -37.2140   24.6750 C   0  0  0  0  0  1  0  0  0  0  0  0
  -26.4730  -37.3900   23.7500 N   0  0  0  0  0  0  0  0  0  0  0  0
  -26.0710  -38.3090   23.9090 H   0  0  0  0  0  0  0  0  0  0  0  0
  1  4  1  0
  1  2  1  0
  2  7  1  0
  4  3  1  0
  4  9  1  0
  5  3  1  0
  5  7  1  0
  6 52  1  0
  6  5  1  0
  6  7  1  0
  7  8  1  1
  9 11  2  0
 10  9  1  0
 10 13  1  0
 12 10  1  0
 14 15  1  0
 14 13  1  0
 16 15  1  0
 17 22  1  0
 18 19  1  0
 18 17  1  0
 20 19  1  0
 20 27  1  0
 20 21  1  0
 22 16  1  0
 22 21  1  0
 23 16  2  0
 24 25  2  0
 25 44  1  0
 26 25  1  0
 26 29  1  0
 27 24  1  0
 27 28  1  0
 28 26  2  0
 29 30  1  0
 30 31  2  0
 32 35  1  0
 32 31  1  0
 33 32  2  0
 34 33  1  0
 34 29  2  0
 35 36  1  0
 36 37  1  0
 37 38  2  0
 39 38  1  0
 39 43  1  0
 40 39  2  0
 41 36  2  0
 41 40  1  0
 42 41  1  0
 44 45  1  0
 45 48  1  0
 45 47  1  0
 46 44  2  0
 49 50  1  0
 49 24  1  0
 51 49  1  0
 53 64  2  0
 54 52  1  0
 54 59  1  0
 55 63  1  0
 55 65  1  0
 56 62  1  0
 56 58  1  0
 57 63  1  0
 58 57  1  0
 59 58  2  0
 60 61  1  0
 60 54  2  0
 61 56  2  0
 62 55  1  0
 63 53  1  0
 65 67  2  0
 66 65  1  0
 68 66  1  0
 69 78  2  0
 69 74  1  0
 70 66  1  0
 70 74  1  0
 71 70  1  0
 72 73  1  0
 72 71  1  0
 73 69  1  0
 74 75  2  0
 75 76  1  0
 77 76  2  0
 78 77  1  0
 79 53  1  0
 79 84  1  0
 79 80  1  0
 80 83  1  1
 80 81  1  0
 82 80  1  0
 84 87  1  0
 85 89  1  0
 85 84  1  0
 86 85  2  0
 89 88  1  0
 91 89  1  0
 91 92  1  0
 91 90  1  0
M  ISO  4   6 101  15 100  16 100  52 101
M  END
>  <TORSDO>  (40) 
F 20

>  <SCORE>  (40) 
-13.833

>  <name>  (40) 
39

>  <ligand_id>  (40) 
39

>  <original_smiles>  (40) 
[H]c1c([H])c([H])c2c(c1[H])C([H])([H])C([H])([H])C([H])([H])C2([H])N([H])C(=O)C1([H])N(C(=O)C([H])(N([H])C(=O)C([H])(N([H])C([H])([H])[H])C([H])([H])[H])C(C([H])([H])[H])(C([H])([H])[H])C([H])([H])[H])C([H])([H])c2c([H])c(OC3([H])C4([H])C([H])([H])C([H])(C(=O)N([H])C([H])([H])C([H])([H])C([H])([H])C(=O)N5C([H])([H])C([H])([H])C([H])([H])C([H])(n6nc(-c7c([H])c([H])c(Oc8c([H])c([H])c(F)c([H])c8F)c([H])c7[H])c(C(=O)N([H])[H])c6N([H])[H])C5([H])[H])C([H])([H])C([H])([H])C34C([H])([H])[H])c([H])c([H])c2C1([H])[H]

>  <smiles>  (40) 
[H]c1c([H])c([H])c2c(c1[H])C([H])([H])C([H])([H])C([H])([H])C2([H])N([H])C(=O)C1([H])N(C(=O)C([H])(N([H])C(=O)C([H])(N([H])C([H])([H])[H])C([H])([H])[H])C(C([H])([H])[H])(C([H])([H])[H])C([H])([H])[H])C([H])([H])c2c([H])c(OC3([H])C4([H])C([H])([H])C([H])(C(=O)N([H])C([H])([H])C([H])([H])C([H])([H])C(=O)N5C([H])([H])C([H])([H])C([H])([H])C([H])(n6nc(-c7c([H])c([H])c(Oc8c([H])c([H])c(F)c([H])c8F)c([H])c7[H])c(C(=O)N([H])[H])c6N([H])[H])C5([H])[H])C([H])([H])C([H])([H])C34C([H])([H])[H])c([H])c([H])c2C1([H])[H]

$$$$
40:0:0
     RDKit          3D

 89 97  0  0  1  0  0  0  0  0999 V2000
  -27.5130  -22.2340   18.3450 C   0  0  0  0  0  3  0  0  0  0  0  0
  -28.0980  -21.1000   18.9500 C   0  0  0  0  0  3  0  0  0  0  0  0
  -27.6130  -23.5200   18.9230 C   0  0  0  0  0  3  0  0  0  0  0  0
  -28.8930  -22.5400   20.7360 C   0  0  0  0  0  3  0  0  0  0  0  0
  -28.8280  -21.2160   20.1530 C   0  0  0  0  0  0  0  0  0  0  0  0
  -28.2870  -23.7190   20.1480 C   0  0  0  0  0  0  0  0  0  0  0  0
  -29.5820  -19.9540   20.7540 C   0  0  0  0  0  2  0  0  0  0  0  0
  -29.1890  -18.4360   20.3720 C   0  0  0  0  0  3  0  0  0  0  0  0
  -30.2240  -17.2660   20.7600 C   0  0  0  0  0  3  0  0  0  0  0  0
  -30.5670  -14.6960   20.4210 C   0  0  0  0  0  0  0  0  0  0  0  0
  -30.3630  -12.4400   19.3800 C   0  0  0  0  0  2  0  0  0  0  0  0
  -29.4240  -12.5160   18.1560 C   0  0  0  0  0  2  0  0  0  0  0  0
  -27.9580  -12.3280   18.5920 C   0  0  0  0  0  2  0  0  0  0  0  0
  -27.5810  -13.2320   19.7960 C   0  0  0  0  0  3  0  0  0  0  0  0
  -28.6320  -13.1440   20.9230 C   0  0  0  0  0  2  0  0  0  0  0  0
  -29.9320  -13.4830   20.3360 N   0  0  0  0  0  0  0  0  0  0  0  0
  -31.7510  -14.8080   20.0980 O   0  0  0  0  0  0  0  0  0  0  0  0
  -29.7940  -15.8100   20.6800 N   0  0  0  0  0  0  0  0  0  0  0  0
  -28.8210  -15.6200   20.8760 H   0  0  0  0  0  0  0  0  0  0  0  0
  -25.1950  -13.8310   20.5170 C   0  0  0  0  0  0  0  0  0  0  0  0
  -24.1300  -13.0570   20.8900 C   0  0  0  0  0  0  0  0  0  0  0  0
  -24.5980  -11.7090   20.8710 C   0  0  0  0  0  0  0  0  0  0  0  0
  -26.2390  -12.9500   20.2880 N   0  0  0  0  0  0  0  0  0  0  0  0
  -25.8870  -11.6690   20.5630 N   0  0  0  0  0  0  0  0  0  0  0  0
  -23.8780  -10.4450   21.0660 C   0  0  0  0  0  0  0  0  0  0  0  0
  -24.3180   -9.4750   21.9920 C   0  0  0  0  0  3  0  0  0  0  0  0
  -23.5920   -8.2760   22.1710 C   0  0  0  0  0  3  0  0  0  0  0  0
  -22.4130   -8.0430   21.4230 C   0  0  0  0  0  0  0  0  0  0  0  0
  -21.9950   -9.0020   20.4820 C   0  0  0  0  0  3  0  0  0  0  0  0
  -22.7230  -10.1900   20.3020 C   0  0  0  0  0  3  0  0  0  0  0  0
  -21.6590   -6.8980   21.5120 O   0  0  0  0  0  0  0  0  0  0  0  0
  -21.6230   -6.1460   22.6600 C   0  0  0  0  0  0  0  0  0  0  0  0
  -21.2190   -6.6940   23.8980 C   0  0  0  0  0  3  0  0  0  0  0  0
  -21.1330   -5.8690   25.0390 C   0  0  0  0  0  3  0  0  0  0  0  0
  -21.4390   -4.4990   24.9410 C   0  0  0  0  0  0  0  0  0  0  0  0
  -21.8350   -3.9510   23.7080 C   0  0  0  0  0  3  0  0  0  0  0  0
  -21.9250   -4.7720   22.5710 C   0  0  0  0  0  0  0  0  0  0  0  0
  -22.2860   -4.2330   21.3810 F   0  0  0  0  0  0  0  0  0  0  0  0
  -21.3480   -3.7050   26.0340 F   0  0  0  0  0  0  0  0  0  0  0  0
  -22.7320  -13.5320   21.1540 C   0  0  0  0  0  0  0  0  0  0  0  0
  -22.0010  -12.8360   22.0200 N   0  0  0  0  0  0  0  0  0  0  0  0
  -22.2930  -14.5550   20.6280 O   0  0  0  0  0  0  0  0  0  0  0  0
  -22.3710  -12.0120   22.4680 H   0  0  0  0  0  0  0  0  0  0  0  0
  -21.0620  -13.1350   22.2380 H   0  0  0  0  0  0  0  0  0  0  0  0
  -25.3580  -15.2000   20.3280 N   0  0  0  0  0  0  0  0  0  0  0  0
  -24.5860  -15.8500   20.4230 H   0  0  0  0  0  0  0  0  0  0  0  0
  -26.2000  -15.6400   19.9790 H   0  0  0  0  0  0  0  0  0  0  0  0
  -28.2570  -25.1330   20.8710 C   0  0  0  0  0  2  0  0  0  0  0  0
  -28.3240  -26.4250   20.1330 O   0  0  0  0  0  0  0  0  0  0  0  0
  -24.6210  -31.8700   23.2130 C   0  0  0  0  0  0  0  0  0  0  0  0
  -27.2150  -27.2840   20.1710 C   0  0  0  0  0  0  0  0  0  0  0  0
  -23.4170  -30.4650   21.5850 C   0  0  0  0  0  3  0  0  0  0  0  0
  -24.8660  -28.9170   20.1610 C   0  0  0  0  0  0  0  0  0  0  0  0
  -25.9620  -30.7820   21.4020 C   0  0  0  0  0  2  0  0  0  0  0  0
  -26.0440  -29.4050   20.7440 C   0  0  0  0  0  0  0  0  0  0  0  0
  -27.2300  -28.6070   20.7220 C   0  0  0  0  0  3  0  0  0  0  0  0
  -26.0080  -26.8420   19.5990 C   0  0  0  0  0  3  0  0  0  0  0  0
  -24.8510  -27.6440   19.5760 C   0  0  0  0  0  3  0  0  0  0  0  0
  -23.6320  -29.7940   20.2040 C   0  0  0  0  0  2  0  0  0  0  0  0
  -24.6870  -31.0500   22.1270 N   0  0  0  0  0  0  0  0  0  0  0  0
  -23.5330  -32.1740   23.7190 O   0  0  0  0  0  0  0  0  0  0  0  0
  -22.7580  -29.4430   22.5450 C   0  0  0  0  0  0  0  0  0  0  0  0
  -21.4290  -29.2700   22.4270 N   0  0  0  0  0  0  0  0  0  0  0  0
  -23.4400  -28.8090   23.3560 O   0  0  0  0  0  0  0  0  0  0  0  0
  -20.9400  -29.8270   21.7390 H   0  0  0  0  0  0  0  0  0  0  0  0
  -18.0490  -28.0830   22.9480 C   0  0  0  0  0  0  0  0  0  0  0  0
  -20.6120  -28.3320   23.2030 C   0  0  0  0  0  3  0  0  0  0  0  0
  -20.7040  -26.9010   22.6220 C   0  0  0  0  0  2  0  0  0  0  0  0
  -19.5940  -26.5920   21.6130 C   0  0  0  0  0  2  0  0  0  0  0  0
  -18.2190  -26.7350   22.2700 C   0  0  0  0  0  2  0  0  0  0  0  0
  -19.1740  -28.8400   23.3730 C   0  0  0  0  0  0  0  0  0  0  0  0
  -18.9640  -30.1030   23.9670 C   0  0  0  0  0  3  0  0  0  0  0  0
  -17.6610  -30.6090   24.1400 C   0  0  0  0  0  3  0  0  0  0  0  0
  -16.5510  -29.8490   23.7340 C   0  0  0  0  0  3  0  0  0  0  0  0
  -16.7470  -28.5880   23.1440 C   0  0  0  0  0  3  0  0  0  0  0  0
  -25.9050  -32.4940   23.8490 C   0  0  0  0  0  3  0  0  0  0  0  0
  -26.4150  -31.7210   25.1280 C   0  0  1  0  0  0  0  0  0  0  0  0
  -25.3170  -31.4910   26.1910 C   0  0  0  0  0  1  0  0  0  0  0  0
  -26.9940  -30.3410   24.7450 C   0  0  0  0  0  1  0  0  0  0  0  0
  -27.5690  -32.5100   25.7930 C   0  0  0  0  0  1  0  0  0  0  0  0
  -25.5990  -33.8910   24.1800 N   0  0  0  0  0  0  0  0  0  0  0  0
  -25.9350  -34.9450   23.4220 C   0  0  0  0  0  0  0  0  0  0  0  0
  -26.6010  -34.8380   22.3900 O   0  0  0  0  0  0  0  0  0  0  0  0
  -25.0010  -34.0480   24.9770 H   0  0  0  0  0  0  0  0  0  0  0  0
  -24.2090  -36.7390   23.0700 C   0  0  0  0  0  1  0  0  0  0  0  0
  -25.4500  -36.3330   23.8800 C   0  0  0  0  0  3  0  0  0  0  0  0
  -27.5880  -37.2120   24.7080 C   0  0  0  0  0  1  0  0  0  0  0  0
  -26.4840  -37.3850   23.7660 N   0  0  0  0  0  0  0  0  0  0  0  0
  -26.0810  -38.3050   23.9150 H   0  0  0  0  0  0  0  0  0  0  0  0
  1  3  2  0
  1  2  1  0
  2  5  2  0
  3  6  1  0
  5  4  1  0
  5  7  1  0
  6  4  2  0
  6 48  1  0
  8  7  1  0
  8  9  2  0
 10 18  1  0
 11 16  1  0
 12 13  1  0
 12 11  1  0
 14 13  1  0
 14 23  1  0
 14 15  1  0
 16 10  1  0
 16 15  1  0
 17 10  2  0
 18  9  1  0
 18 19  1  0
 20 21  2  0
 21 40  1  0
 22 21  1  0
 22 25  1  0
 23 20  1  0
 23 24  1  0
 24 22  2  0
 25 26  1  0
 26 27  2  0
 28 31  1  0
 28 27  1  0
 29 28  2  0
 30 29  1  0
 30 25  2  0
 31 32  1  0
 32 33  1  0
 33 34  2  0
 35 34  1  0
 35 39  1  0
 36 35  2  0
 37 32  2  0
 37 36  1  0
 38 37  1  0
 40 41  1  0
 41 44  1  0
 41 43  1  0
 42 40  2  0
 45 46  1  0
 45 20  1  0
 47 45  1  0
 49 51  1  0
 49 48  1  0
 50 61  2  0
 51 56  1  0
 52 60  1  0
 52 62  1  0
 53 59  1  0
 53 55  1  0
 54 60  1  0
 55 54  1  0
 56 55  2  0
 57 51  2  0
 58 57  1  0
 58 53  2  0
 59 52  1  0
 60 50  1  0
 62 64  2  0
 63 62  1  0
 65 63  1  0
 66 75  2  0
 66 71  1  0
 67 63  1  0
 67 71  1  0
 68 67  1  0
 69 70  1  0
 69 68  1  0
 70 66  1  0
 71 72  2  0
 72 73  1  0
 74 73  2  0
 75 74  1  0
 76 50  1  0
 76 81  1  0
 76 77  1  0
 77 80  1  1
 77 78  1  0
 79 77  1  0
 81 84  1  0
 82 86  1  0
 82 81  1  0
 83 82  2  0
 86 85  1  0
 88 86  1  0
 88 89  1  0
 88 87  1  0
M  ISO  4  10 100  18 100  48 101  49 101
M  END
>  <TORSDO>  (41) 
F 20

>  <SCORE>  (41) 
-13.783

>  <name>  (41) 
40

>  <ligand_id>  (41) 
40

>  <original_smiles>  (41) 
[H]c1c([H])c(C([H])([H])Oc2c([H])c([H])c3c(c2[H])C([H])([H])N(C(=O)C([H])(N([H])C(=O)C([H])(N([H])C([H])([H])[H])C([H])([H])[H])C(C([H])([H])[H])(C([H])([H])[H])C([H])([H])[H])C([H])(C(=O)N([H])C2([H])c4c([H])c([H])c([H])c([H])c4C([H])([H])C([H])([H])C2([H])[H])C3([H])[H])c([H])c(C([H])([H])C([H])([H])C([H])([H])N([H])C(=O)N2C([H])([H])C([H])([H])C([H])([H])C([H])(n3nc(-c4c([H])c([H])c(Oc5c([H])c([H])c(F)c([H])c5F)c([H])c4[H])c(C(=O)N([H])[H])c3N([H])[H])C2([H])[H])c1[H]

>  <smiles>  (41) 
[H]c1c([H])c(C([H])([H])Oc2c([H])c([H])c3c(c2[H])C([H])([H])N(C(=O)C([H])(N([H])C(=O)C([H])(N([H])C([H])([H])[H])C([H])([H])[H])C(C([H])([H])[H])(C([H])([H])[H])C([H])([H])[H])C([H])(C(=O)N([H])C2([H])c4c([H])c([H])c([H])c([H])c4C([H])([H])C([H])([H])C2([H])[H])C3([H])[H])c([H])c(C([H])([H])C([H])([H])C([H])([H])N([H])C(=O)N2C([H])([H])C([H])([H])C([H])([H])C([H])(n3nc(-c4c([H])c([H])c(Oc5c([H])c([H])c(F)c([H])c5F)c([H])c4[H])c(C(=O)N([H])[H])c3N([H])[H])C2([H])[H])c1[H]

$$$$
41:0:0
     RDKit          3D

 97105  0  0  1  0  0  0  0  0999 V2000
  -30.8690  -22.6890   18.0360 C   0  0  0  0  0  3  0  0  0  0  0  0
  -30.4570  -23.9170   17.4860 C   0  0  0  0  0  3  0  0  0  0  0  0
  -29.6340  -23.1970   20.0700 C   0  0  0  0  0  3  0  0  0  0  0  0
  -30.4440  -22.3030   19.3260 C   0  0  0  0  0  0  0  0  0  0  0  0
  -29.2370  -24.4490   19.5420 C   0  0  0  0  0  0  0  0  0  0  0  0
  -29.6380  -24.7940   18.2220 C   0  0  0  0  0  0  0  0  0  0  0  0
  -29.2460  -25.9860   17.6160 N   0  0  0  0  0  0  0  0  0  0  0  0
  -29.8830  -26.4010   16.9450 H   0  0  0  0  0  0  0  0  0  0  0  0
  -28.8590  -26.6780   18.2570 H   0  0  0  0  0  0  0  0  0  0  0  0
  -30.9210  -21.0030   19.8860 C   0  0  0  0  0  0  0  0  0  0  0  0
  -32.0380  -20.5360   19.6260 O   0  0  0  0  0  0  0  0  0  0  0  0
  -29.9500  -20.1840   20.7460 C   0  0  0  0  0  2  0  0  0  0  0  0
  -30.6930  -19.0200   21.2770 N   0  0  0  0  0  4  0  0  0  0  0  0
  -30.8440  -19.1600   22.2620 H   0  0  0  0  0  0  0  0  0  0  0  0
  -31.5910  -19.0770   20.8140 H   0  0  0  0  0  0  0  0  0  0  0  0
  -30.0810  -17.6950   21.0260 C   0  0  0  0  0  2  0  0  0  0  0  0
  -30.8030  -16.5660   21.7980 C   0  0  0  0  0  2  0  0  0  0  0  0
  -30.7380  -14.4060   20.5580 C   0  0  0  0  0  0  0  0  0  0  0  0
  -30.3700  -12.3350   19.2730 C   0  0  0  0  0  2  0  0  0  0  0  0
  -29.4210  -12.5990   18.0890 C   0  0  0  0  0  2  0  0  0  0  0  0
  -27.9500  -12.4590   18.5220 C   0  0  0  0  0  2  0  0  0  0  0  0
  -27.6320  -13.2500   19.8180 C   0  0  0  0  0  3  0  0  0  0  0  0
  -28.6890  -12.9700   20.9110 C   0  0  0  0  0  2  0  0  0  0  0  0
  -30.0230  -13.2680   20.3560 N   0  0  0  0  0  0  0  0  0  0  0  0
  -31.7620  -14.6830   19.9280 O   0  0  0  0  0  0  0  0  0  0  0  0
  -30.2520  -15.2430   21.4850 N   0  0  0  0  0  0  0  0  0  0  0  0
  -29.4370  -14.9380   21.9980 H   0  0  0  0  0  0  0  0  0  0  0  0
  -25.2260  -13.8520   20.5130 C   0  0  0  0  0  0  0  0  0  0  0  0
  -24.1610  -13.0760   20.8850 C   0  0  0  0  0  0  0  0  0  0  0  0
  -24.6260  -11.7260   20.8550 C   0  0  0  0  0  0  0  0  0  0  0  0
  -26.2760  -12.9740   20.2890 N   0  0  0  0  0  0  0  0  0  0  0  0
  -25.9180  -11.6910   20.5500 N   0  0  0  0  0  0  0  0  0  0  0  0
  -23.9060  -10.4610   21.0480 C   0  0  0  0  0  0  0  0  0  0  0  0
  -24.3490   -9.4930   21.9760 C   0  0  0  0  0  3  0  0  0  0  0  0
  -23.6290   -8.2920   22.1570 C   0  0  0  0  0  3  0  0  0  0  0  0
  -22.4500   -8.0530   21.4090 C   0  0  0  0  0  0  0  0  0  0  0  0
  -22.0260   -9.0100   20.4710 C   0  0  0  0  0  3  0  0  0  0  0  0
  -22.7470  -10.2020   20.2890 C   0  0  0  0  0  3  0  0  0  0  0  0
  -21.6990   -6.9050   21.5010 O   0  0  0  0  0  0  0  0  0  0  0  0
  -21.6730   -6.1510   22.6460 C   0  0  0  0  0  0  0  0  0  0  0  0
  -21.2700   -6.6930   23.8870 C   0  0  0  0  0  3  0  0  0  0  0  0
  -21.1920   -5.8650   25.0250 C   0  0  0  0  0  3  0  0  0  0  0  0
  -21.5070   -4.4970   24.9230 C   0  0  0  0  0  0  0  0  0  0  0  0
  -21.9030   -3.9550   23.6880 C   0  0  0  0  0  3  0  0  0  0  0  0
  -21.9840   -4.7800   22.5520 C   0  0  0  0  0  0  0  0  0  0  0  0
  -22.3460   -4.2480   21.3590 F   0  0  0  0  0  0  0  0  0  0  0  0
  -21.4250   -3.6990   26.0130 F   0  0  0  0  0  0  0  0  0  0  0  0
  -22.7620  -13.5480   21.1580 C   0  0  0  0  0  0  0  0  0  0  0  0
  -22.0370  -12.8480   22.0260 N   0  0  0  0  0  0  0  0  0  0  0  0
  -22.3160  -14.5700   20.6380 O   0  0  0  0  0  0  0  0  0  0  0  0
  -22.4100  -12.0220   22.4690 H   0  0  0  0  0  0  0  0  0  0  0  0
  -21.0980  -13.1440   22.2500 H   0  0  0  0  0  0  0  0  0  0  0  0
  -25.3850  -15.2220   20.3310 N   0  0  0  0  0  0  0  0  0  0  0  0
  -24.6150  -15.8750   20.4330 H   0  0  0  0  0  0  0  0  0  0  0  0
  -26.2310  -15.6580   19.9860 H   0  0  0  0  0  0  0  0  0  0  0  0
  -28.3550  -25.3450   20.4220 C   0  0  0  0  0  2  0  0  0  0  0  0
  -28.4180  -26.7510   20.1300 O   0  0  0  0  0  0  0  0  0  0  0  0
  -24.6070  -31.8960   23.2400 C   0  0  0  0  0  0  0  0  0  0  0  0
  -27.2310  -27.4510   20.1520 C   0  0  0  0  0  0  0  0  0  0  0  0
  -23.3890  -30.4850   21.6150 C   0  0  0  0  0  3  0  0  0  0  0  0
  -24.8320  -28.9470   20.1830 C   0  0  0  0  0  0  0  0  0  0  0  0
  -25.9140  -30.8430   21.4010 C   0  0  0  0  0  2  0  0  0  0  0  0
  -25.9940  -29.4750   20.7600 C   0  0  0  0  0  0  0  0  0  0  0  0
  -27.1970  -28.7350   20.7390 C   0  0  0  0  0  3  0  0  0  0  0  0
  -26.0550  -26.9410   19.5570 C   0  0  0  0  0  3  0  0  0  0  0  0
  -24.8570  -27.6780   19.5790 C   0  0  0  0  0  3  0  0  0  0  0  0
  -23.5870  -29.8040   20.2350 C   0  0  0  0  0  2  0  0  0  0  0  0
  -24.6560  -31.0850   22.1460 N   0  0  0  0  0  0  0  0  0  0  0  0
  -23.5260  -32.1910   23.7670 O   0  0  0  0  0  0  0  0  0  0  0  0
  -22.7460  -29.4640   22.5810 C   0  0  0  0  0  0  0  0  0  0  0  0
  -21.4220  -29.2760   22.4570 N   0  0  0  0  0  0  0  0  0  0  0  0
  -23.4350  -28.8420   23.3940 O   0  0  0  0  0  0  0  0  0  0  0  0
  -20.9270  -29.8310   21.7720 H   0  0  0  0  0  0  0  0  0  0  0  0
  -18.0540  -28.0730   22.9650 C   0  0  0  0  0  0  0  0  0  0  0  0
  -20.6110  -28.3380   23.2320 C   0  0  0  0  0  3  0  0  0  0  0  0
  -20.7170  -26.9050   22.6590 C   0  0  0  0  0  2  0  0  0  0  0  0
  -19.6140  -26.5770   21.6480 C   0  0  0  0  0  2  0  0  0  0  0  0
  -18.2320  -26.7220   22.2920 C   0  0  0  0  0  2  0  0  0  0  0  0
  -19.1720  -28.8380   23.3910 C   0  0  0  0  0  0  0  0  0  0  0  0
  -18.9530  -30.1040   23.9790 C   0  0  0  0  0  3  0  0  0  0  0  0
  -17.6460  -30.6040   24.1440 C   0  0  0  0  0  3  0  0  0  0  0  0
  -16.5430  -29.8350   23.7330 C   0  0  0  0  0  3  0  0  0  0  0  0
  -16.7480  -28.5710   23.1500 C   0  0  0  0  0  3  0  0  0  0  0  0
  -25.9010  -32.5170   23.8580 C   0  0  0  0  0  3  0  0  0  0  0  0
  -25.6000  -33.9150   24.1920 N   0  0  0  0  0  0  0  0  0  0  0  0
  -25.9210  -34.9650   23.4240 C   0  0  0  0  0  0  0  0  0  0  0  0
  -26.5770  -34.8580   22.3840 O   0  0  0  0  0  0  0  0  0  0  0  0
  -25.0230  -34.0730   25.0050 H   0  0  0  0  0  0  0  0  0  0  0  0
  -24.1870  -36.7520   23.0840 C   0  0  0  0  0  1  0  0  0  0  0  0
  -25.4380  -36.3530   23.8840 C   0  0  0  0  0  3  0  0  0  0  0  0
  -27.5810  -37.2400   24.6890 C   0  0  0  0  0  1  0  0  0  0  0  0
  -26.4680  -37.4060   23.7570 N   0  0  0  0  0  0  0  0  0  0  0  0
  -26.0630  -38.3260   23.9080 H   0  0  0  0  0  0  0  0  0  0  0  0
  -26.4260  -31.7420   25.1280 C   0  0  1  0  0  0  0  0  0  0  0  0
  -25.3380  -31.5040   26.2010 C   0  0  0  0  0  1  0  0  0  0  0  0
  -27.0060  -30.3660   24.7280 C   0  0  0  0  0  1  0  0  0  0  0  0
  -27.5810  -32.5340   25.7850 C   0  0  0  0  0  1  0  0  0  0  0  0
  1  4  1  0
  2  1  2  0
  2  6  1  0
  4 10  1  0
  4  3  2  0
  5  3  1  0
  5 56  1  0
  6  5  2  0
  7  6  1  0
  7  9  1  0
  8  7  1  0
 10 12  1  0
 11 10  2  0
 12 13  1  0
 13 14  1  0
 15 13  1  0
 16 13  1  0
 16 17  1  0
 18 26  1  0
 19 24  1  0
 20 21  1  0
 20 19  1  0
 22 21  1  0
 22 31  1  0
 22 23  1  0
 24 18  1  0
 24 23  1  0
 25 18  2  0
 26 17  1  0
 26 27  1  0
 28 29  2  0
 29 48  1  0
 30 29  1  0
 30 33  1  0
 31 28  1  0
 31 32  1  0
 32 30  2  0
 33 34  1  0
 34 35  2  0
 36 39  1  0
 36 35  1  0
 37 36  2  0
 38 37  1  0
 38 33  2  0
 39 40  1  0
 40 41  1  0
 41 42  2  0
 43 42  1  0
 43 47  1  0
 44 43  2  0
 45 40  2  0
 45 44  1  0
 46 45  1  0
 48 49  1  0
 49 52  1  0
 49 51  1  0
 50 48  2  0
 53 54  1  0
 53 28  1  0
 55 53  1  0
 57 59  1  0
 57 56  1  0
 58 69  2  0
 59 64  1  0
 60 68  1  0
 60 70  1  0
 61 67  1  0
 61 63  1  0
 62 68  1  0
 63 62  1  0
 64 63  2  0
 65 66  1  0
 65 59  2  0
 66 61  2  0
 67 60  1  0
 68 58  1  0
 70 72  2  0
 71 70  1  0
 73 71  1  0
 74 83  2  0
 74 79  1  0
 75 71  1  0
 75 79  1  0
 76 75  1  0
 77 78  1  0
 77 76  1  0
 78 74  1  0
 79 80  2  0
 80 81  1  0
 82 81  2  0
 83 82  1  0
 84 58  1  0
 84 85  1  0
 84 94  1  0
 85 88  1  0
 86 90  1  0
 86 85  1  0
 87 86  2  0
 90 89  1  0
 92 90  1  0
 92 93  1  0
 92 91  1  0
 94 97  1  1
 94 95  1  0
 96 94  1  0
M  ISO  4  18 100  26 100  56 101  57 101
M  END
>  <TORSDO>  (42) 
F 23

>  <SCORE>  (42) 
-13.052

>  <name>  (42) 
41

>  <ligand_id>  (42) 
41

>  <original_smiles>  (42) 
[H]c1c([H])c([H])c2c(c1[H])C([H])([H])C([H])([H])C([H])([H])C2([H])N([H])C(=O)C1([H])N(C(=O)C([H])(N([H])C(=O)C([H])(N([H])C([H])([H])[H])C([H])([H])[H])C(C([H])([H])[H])(C([H])([H])[H])C([H])([H])[H])C([H])([H])c2c([H])c(OC([H])([H])c3c([H])c(C(=O)C([H])([H])[N+]([H])([H])C([H])([H])C([H])([H])N([H])C(=O)N4C([H])([H])C([H])([H])C([H])([H])C([H])(n5nc(-c6c([H])c([H])c(Oc7c([H])c([H])c(F)c([H])c7F)c([H])c6[H])c(C(=O)N([H])[H])c5N([H])[H])C4([H])[H])c([H])c([H])c3N([H])[H])c([H])c([H])c2C1([H])[H]

>  <smiles>  (42) 
[H]c1c([H])c([H])c2c(c1[H])C([H])([H])C([H])([H])C([H])([H])C2([H])N([H])C(=O)C1([H])N(C(=O)C([H])(N([H])C(=O)C([H])(N([H])C([H])([H])[H])C([H])([H])[H])C(C([H])([H])[H])(C([H])([H])[H])C([H])([H])[H])C([H])([H])c2c([H])c(OC([H])([H])c3c([H])c(C(=O)C([H])([H])[N+]([H])([H])C([H])([H])C([H])([H])N([H])C(=O)N4C([H])([H])C([H])([H])C([H])([H])C([H])(n5nc(-c6c([H])c([H])c(Oc7c([H])c([H])c(F)c([H])c7F)c([H])c6[H])c(C(=O)N([H])[H])c5N([H])[H])C4([H])[H])c([H])c([H])c3N([H])[H])c([H])c([H])c2C1([H])[H]

$$$$
42:0:0
     RDKit          3D

 96104  0  0  1  0  0  0  0  0999 V2000
  -29.2120  -21.1580   18.3000 C   0  0  0  0  0  3  0  0  0  0  0  0
  -29.5940  -20.1060   20.4500 C   0  0  0  0  0  3  0  0  0  0  0  0
  -29.0650  -21.1900   19.7020 C   0  0  0  0  0  0  0  0  0  0  0  0
  -29.8810  -20.1020   17.6540 C   0  0  0  0  0  0  0  0  0  0  0  0
  -30.2190  -19.0020   19.8160 C   0  0  0  0  0  0  0  0  0  0  0  0
  -30.3780  -19.0080   18.4020 C   0  0  0  0  0  0  0  0  0  0  0  0
  -30.0200  -20.1550   16.1420 C   0  0  0  0  0  1  0  0  0  0  0  0
  -31.0380  -17.8530   17.6500 C   0  0  0  0  0  1  0  0  0  0  0  0
  -27.9470  -22.1330   21.8320 C   0  0  0  0  0  1  0  0  0  0  0  0
  -28.2640  -22.3420   20.3420 C   0  0  0  0  0  3  0  0  0  0  0  0
  -28.8910  -23.6770   20.1460 N   0  0  0  0  0  4  0  0  0  0  0  0
  -28.6890  -24.2170   20.9740 H   0  0  0  0  0  0  0  0  0  0  0  0
  -29.8920  -23.5670   20.0980 H   0  0  0  0  0  0  0  0  0  0  0  0
  -28.3770  -24.4630   18.9900 C   0  0  0  0  0  2  0  0  0  0  0  0
  -28.8170  -25.9450   18.9760 C   0  0  0  0  0  2  0  0  0  0  0  0
  -28.4150  -26.7200   20.1120 O   0  0  0  0  0  0  0  0  0  0  0  0
  -24.6120  -31.8820   23.1980 C   0  0  0  0  0  0  0  0  0  0  0  0
  -27.2380  -27.4410   20.0720 C   0  0  0  0  0  0  0  0  0  0  0  0
  -23.4010  -30.4910   21.5510 C   0  0  0  0  0  3  0  0  0  0  0  0
  -24.8460  -28.9600   20.1140 C   0  0  0  0  0  0  0  0  0  0  0  0
  -25.9310  -30.8280   21.3670 C   0  0  0  0  0  2  0  0  0  0  0  0
  -26.0040  -29.4630   20.7150 C   0  0  0  0  0  0  0  0  0  0  0  0
  -27.1970  -28.7050   20.7050 C   0  0  0  0  0  3  0  0  0  0  0  0
  -26.0550  -26.9510   19.4700 C   0  0  0  0  0  3  0  0  0  0  0  0
  -24.8650  -27.7020   19.4910 C   0  0  0  0  0  3  0  0  0  0  0  0
  -23.6050  -29.8200   20.1670 C   0  0  0  0  0  2  0  0  0  0  0  0
  -24.6670  -31.0780   22.0990 N   0  0  0  0  0  0  0  0  0  0  0  0
  -23.5260  -32.1860   23.7100 O   0  0  0  0  0  0  0  0  0  0  0  0
  -22.7410  -29.4670   22.5010 C   0  0  0  0  0  0  0  0  0  0  0  0
  -21.4130  -29.3030   22.3750 N   0  0  0  0  0  0  0  0  0  0  0  0
  -23.4190  -28.8210   23.3040 O   0  0  0  0  0  0  0  0  0  0  0  0
  -20.9310  -29.8770   21.6980 H   0  0  0  0  0  0  0  0  0  0  0  0
  -18.0270  -28.1380   22.8500 C   0  0  0  0  0  0  0  0  0  0  0  0
  -20.5860  -28.3660   23.1340 C   0  0  0  0  0  3  0  0  0  0  0  0
  -20.6770  -26.9410   22.5420 C   0  0  0  0  0  2  0  0  0  0  0  0
  -19.5750  -26.6380   21.5220 C   0  0  0  0  0  2  0  0  0  0  0  0
  -18.1920  -26.7920   22.1630 C   0  0  0  0  0  2  0  0  0  0  0  0
  -19.1510  -28.8840   23.2920 C   0  0  0  0  0  0  0  0  0  0  0  0
  -18.9430  -30.1440   23.8930 C   0  0  0  0  0  3  0  0  0  0  0  0
  -17.6430  -30.6580   24.0570 C   0  0  0  0  0  3  0  0  0  0  0  0
  -16.5330  -29.9070   23.6330 C   0  0  0  0  0  3  0  0  0  0  0  0
  -16.7260  -28.6490   23.0360 C   0  0  0  0  0  3  0  0  0  0  0  0
  -25.9020  -32.4860   23.8360 C   0  0  0  0  0  3  0  0  0  0  0  0
  -25.5920  -33.8660   24.2330 N   0  0  0  0  0  0  0  0  0  0  0  0
  -25.9040  -34.9500   23.5110 C   0  0  0  0  0  0  0  0  0  0  0  0
  -26.5590  -34.8950   22.4670 O   0  0  0  0  0  0  0  0  0  0  0  0
  -25.0060  -33.9830   25.0470 H   0  0  0  0  0  0  0  0  0  0  0  0
  -24.1500  -36.7340   23.2630 C   0  0  0  0  0  1  0  0  0  0  0  0
  -25.4110  -36.3140   24.0330 C   0  0  0  0  0  3  0  0  0  0  0  0
  -27.5590  -37.1820   24.8450 C   0  0  0  0  0  1  0  0  0  0  0  0
  -26.4310  -37.3810   23.9390 N   0  0  0  0  0  0  0  0  0  0  0  0
  -26.0200  -38.2890   24.1360 H   0  0  0  0  0  0  0  0  0  0  0  0
  -26.4390  -31.6620   25.0700 C   0  0  1  0  0  0  0  0  0  0  0  0
  -25.3590  -31.3770   26.1390 C   0  0  0  0  0  1  0  0  0  0  0  0
  -27.0210  -30.3060   24.6100 C   0  0  0  0  0  1  0  0  0  0  0  0
  -27.5980  -32.4310   25.7470 C   0  0  0  0  0  1  0  0  0  0  0  0
  -30.6330  -17.7910   20.6630 C   0  0  0  0  0  2  0  0  0  0  0  0
  -29.5860  -16.6640   20.5290 C   0  0  0  0  0  2  0  0  0  0  0  0
  -30.6670  -14.4350   20.5830 C   0  0  0  0  0  0  0  0  0  0  0  0
  -30.4270  -12.2840   19.4140 C   0  0  0  0  0  2  0  0  0  0  0  0
  -29.4940  -12.5250   18.2070 C   0  0  0  0  0  2  0  0  0  0  0  0
  -28.0160  -12.3680   18.6150 C   0  0  0  0  0  2  0  0  0  0  0  0
  -27.6690  -13.1890   19.8850 C   0  0  0  0  0  3  0  0  0  0  0  0
  -28.7040  -12.9160   21.0000 C   0  0  0  0  0  2  0  0  0  0  0  0
  -30.0460  -13.2310   20.4720 N   0  0  0  0  0  0  0  0  0  0  0  0
  -31.7460  -14.6980   20.0410 O   0  0  0  0  0  0  0  0  0  0  0  0
  -29.9130  -15.3800   21.1610 N   0  0  0  0  0  0  0  0  0  0  0  0
  -29.1580  -14.9960   21.7120 H   0  0  0  0  0  0  0  0  0  0  0  0
  -25.2630  -13.8090   20.5660 C   0  0  0  0  0  0  0  0  0  0  0  0
  -24.1860  -13.0400   20.9140 C   0  0  0  0  0  0  0  0  0  0  0  0
  -24.6400  -11.6860   20.8690 C   0  0  0  0  0  0  0  0  0  0  0  0
  -26.3060  -12.9230   20.3390 N   0  0  0  0  0  0  0  0  0  0  0  0
  -25.9310  -11.6400   20.5740 N   0  0  0  0  0  0  0  0  0  0  0  0
  -23.9060  -10.4270   21.0380 C   0  0  0  0  0  0  0  0  0  0  0  0
  -24.3610   -9.4190   21.9170 C   0  0  0  0  0  3  0  0  0  0  0  0
  -23.6280   -8.2240   22.0760 C   0  0  0  0  0  3  0  0  0  0  0  0
  -22.4270   -8.0270   21.3560 C   0  0  0  0  0  0  0  0  0  0  0  0
  -21.9900   -9.0230   20.4660 C   0  0  0  0  0  3  0  0  0  0  0  0
  -22.7230  -10.2100   20.3050 C   0  0  0  0  0  3  0  0  0  0  0  0
  -21.6650   -6.8860   21.4250 O   0  0  0  0  0  0  0  0  0  0  0  0
  -21.6870   -6.0730   22.5290 C   0  0  0  0  0  0  0  0  0  0  0  0
  -21.4010   -6.5630   23.8210 C   0  0  0  0  0  3  0  0  0  0  0  0
  -21.3660   -5.6800   24.9180 C   0  0  0  0  0  3  0  0  0  0  0  0
  -21.6030   -4.3060   24.7240 C   0  0  0  0  0  0  0  0  0  0  0  0
  -21.8820   -3.8150   23.4370 C   0  0  0  0  0  3  0  0  0  0  0  0
  -21.9200   -4.6950   22.3420 C   0  0  0  0  0  0  0  0  0  0  0  0
  -22.1680   -4.2130   21.1010 F   0  0  0  0  0  0  0  0  0  0  0  0
  -21.5630   -3.4550   25.7760 F   0  0  0  0  0  0  0  0  0  0  0  0
  -22.7910  -13.5230   21.1830 C   0  0  0  0  0  0  0  0  0  0  0  0
  -22.0590  -12.8200   22.0380 N   0  0  0  0  0  0  0  0  0  0  0  0
  -22.3590  -14.5570   20.6730 O   0  0  0  0  0  0  0  0  0  0  0  0
  -22.4260  -11.9820   22.4650 H   0  0  0  0  0  0  0  0  0  0  0  0
  -21.1220  -13.1210   22.2660 H   0  0  0  0  0  0  0  0  0  0  0  0
  -25.4330  -15.1810   20.4100 N   0  0  0  0  0  0  0  0  0  0  0  0
  -24.6610  -15.8290   20.5220 H   0  0  0  0  0  0  0  0  0  0  0  0
  -26.2820  -15.6310   20.0910 H   0  0  0  0  0  0  0  0  0  0  0  0
  1  3  1  0
  3 10  1  0
  3  2  2  0
  4  1  2  0
  4  6  1  0
  5  2  1  0
  5 57  1  0
  6  5  2  0
  7  4  1  0
  8  6  1  0
 10  9  1  0
 11 10  1  0
 11 12  1  0
 13 11  1  0
 14 11  1  0
 15 14  1  0
 15 16  1  0
 17 28  2  0
 18 16  1  0
 18 23  1  0
 19 27  1  0
 19 29  1  0
 20 26  1  0
 20 22  1  0
 21 27  1  0
 22 21  1  0
 23 22  2  0
 24 25  1  0
 24 18  2  0
 25 20  2  0
 26 19  1  0
 27 17  1  0
 29 31  2  0
 30 29  1  0
 32 30  1  0
 33 42  2  0
 33 38  1  0
 34 30  1  0
 34 38  1  0
 35 34  1  0
 36 37  1  0
 36 35  1  0
 37 33  1  0
 38 39  2  0
 39 40  1  0
 41 40  2  0
 42 41  1  0
 43 17  1  0
 43 44  1  0
 43 53  1  0
 44 47  1  0
 45 49  1  0
 45 44  1  0
 46 45  2  0
 49 48  1  0
 51 49  1  0
 51 52  1  0
 51 50  1  0
 53 56  1  1
 53 54  1  0
 55 53  1  0
 58 57  1  0
 58 67  1  0
 59 67  1  0
 60 65  1  0
 61 62  1  0
 61 60  1  0
 63 62  1  0
 63 72  1  0
 63 64  1  0
 65 59  1  0
 65 64  1  0
 66 59  2  0
 67 68  1  0
 69 70  2  0
 70 89  1  0
 71 70  1  0
 71 74  1  0
 72 69  1  0
 72 73  1  0
 73 71  2  0
 74 75  1  0
 75 76  2  0
 77 80  1  0
 77 76  1  0
 78 77  2  0
 79 78  1  0
 79 74  2  0
 80 81  1  0
 81 82  1  0
 82 83  2  0
 84 83  1  0
 84 88  1  0
 85 84  2  0
 86 81  2  0
 86 85  1  0
 87 86  1  0
 89 90  1  0
 90 93  1  0
 90 92  1  0
 91 89  2  0
 94 95  1  0
 94 69  1  0
 96 94  1  0
M  ISO  4  15 101  16 101  59 100  67 100
M  END
>  <TORSDO>  (43) 
F 22

>  <SCORE>  (43) 
-13.155

>  <name>  (43) 
42

>  <ligand_id>  (43) 
42

>  <original_smiles>  (43) 
[H]c1c([H])c([H])c2c(c1[H])C([H])([H])C([H])([H])C([H])([H])C2([H])N([H])C(=O)C1([H])N(C(=O)C([H])(N([H])C(=O)C([H])(N([H])C([H])([H])[H])C([H])([H])[H])C(C([H])([H])[H])(C([H])([H])[H])C([H])([H])[H])C([H])([H])c2c([H])c(OC([H])([H])C([H])([H])[N+]([H])([H])C([H])(c3c([H])c(C([H])([H])[H])c(C([H])([H])[H])c(C([H])([H])C([H])([H])N([H])C(=O)N4C([H])([H])C([H])([H])C([H])([H])C([H])(n5nc(-c6c([H])c([H])c(Oc7c([H])c([H])c(F)c([H])c7F)c([H])c6[H])c(C(=O)N([H])[H])c5N([H])[H])C4([H])[H])c3[H])C([H])([H])[H])c([H])c([H])c2C1([H])[H]

>  <smiles>  (43) 
[H]c1c([H])c([H])c2c(c1[H])C([H])([H])C([H])([H])C([H])([H])C2([H])N([H])C(=O)C1([H])N(C(=O)C([H])(N([H])C(=O)C([H])(N([H])C([H])([H])[H])C([H])([H])[H])C(C([H])([H])[H])(C([H])([H])[H])C([H])([H])[H])C([H])([H])c2c([H])c(OC([H])([H])C([H])([H])[N+]([H])([H])C([H])(c3c([H])c(C([H])([H])[H])c(C([H])([H])[H])c(C([H])([H])C([H])([H])N([H])C(=O)N4C([H])([H])C([H])([H])C([H])([H])C([H])(n5nc(-c6c([H])c([H])c(Oc7c([H])c([H])c(F)c([H])c7F)c([H])c6[H])c(C(=O)N([H])[H])c5N([H])[H])C4([H])[H])c3[H])C([H])([H])[H])c([H])c([H])c2C1([H])[H]

$$$$
43:0:0
     RDKit          3D

 92100  0  0  1  0  0  0  0  0999 V2000
  -30.4300  -22.0500   20.5990 C   0  0  0  0  0  2  0  0  0  0  0  0
  -29.9710  -23.4440   21.1160 C   0  0  0  0  0  2  0  0  0  0  0  0
  -28.0960  -21.6160   19.8340 C   0  0  0  0  0  2  0  0  0  0  0  0
  -29.2930  -20.9890   20.6090 C   0  0  0  0  0  3  0  0  0  0  0  0
  -28.7280  -24.0140   20.3740 C   0  0  0  0  0  3  0  0  0  0  0  0
  -27.6740  -22.9500   20.3650 N   0  0  0  0  0  4  0  0  0  0  0  0
  -27.3220  -22.8140   21.3020 H   0  0  0  0  0  0  0  0  0  0  0  0
  -26.8950  -23.2640   19.8070 H   0  0  0  0  0  0  0  0  0  0  0  0
  -29.7600  -19.6320   19.9810 C   0  0  0  0  0  0  0  0  0  0  0  0
  -29.7330  -18.4760   20.6980 N   0  0  0  0  0  0  0  0  0  0  0  0
  -30.1770  -19.6360   18.8220 O   0  0  0  0  0  0  0  0  0  0  0  0
  -29.3870  -18.5160   21.6480 H   0  0  0  0  0  0  0  0  0  0  0  0
  -30.2890  -17.1780   20.2130 C   0  0  0  0  0  2  0  0  0  0  0  0
  -29.9160  -15.8750   21.0160 C   0  0  0  0  0  2  0  0  0  0  0  0
  -30.6160  -14.5750   20.4850 C   0  0  0  0  0  0  0  0  0  0  0  0
  -30.3320  -12.3840   19.3640 C   0  0  0  0  0  2  0  0  0  0  0  0
  -29.4040  -12.5800   18.1460 C   0  0  0  0  0  2  0  0  0  0  0  0
  -27.9250  -12.4450   18.5620 C   0  0  0  0  0  2  0  0  0  0  0  0
  -27.5790  -13.2910   19.8170 C   0  0  0  0  0  3  0  0  0  0  0  0
  -28.6270  -13.0900   20.9360 C   0  0  0  0  0  2  0  0  0  0  0  0
  -29.9510  -13.3870   20.3760 N   0  0  0  0  0  0  0  0  0  0  0  0
  -31.7660  -14.6940   20.0490 O   0  0  0  0  0  0  0  0  0  0  0  0
  -25.1800  -13.9110   20.5050 C   0  0  0  0  0  0  0  0  0  0  0  0
  -24.1040  -13.1470   20.8680 C   0  0  0  0  0  0  0  0  0  0  0  0
  -24.5590  -11.7930   20.8500 C   0  0  0  0  0  0  0  0  0  0  0  0
  -26.2230  -13.0230   20.2880 N   0  0  0  0  0  0  0  0  0  0  0  0
  -25.8520  -11.7440   20.5540 N   0  0  0  0  0  0  0  0  0  0  0  0
  -23.8230  -10.5350   21.0390 C   0  0  0  0  0  0  0  0  0  0  0  0
  -24.2440   -9.5670   21.9760 C   0  0  0  0  0  3  0  0  0  0  0  0
  -23.5080   -8.3750   22.1540 C   0  0  0  0  0  3  0  0  0  0  0  0
  -22.3380   -8.1430   21.3940 C   0  0  0  0  0  0  0  0  0  0  0  0
  -21.9360   -9.1010   20.4450 C   0  0  0  0  0  3  0  0  0  0  0  0
  -22.6720  -10.2830   20.2650 C   0  0  0  0  0  3  0  0  0  0  0  0
  -21.5760   -7.0040   21.4790 O   0  0  0  0  0  0  0  0  0  0  0  0
  -21.5210   -6.2600   22.6310 C   0  0  0  0  0  0  0  0  0  0  0  0
  -21.0970   -6.8150   23.8570 C   0  0  0  0  0  3  0  0  0  0  0  0
  -20.9890   -5.9980   25.0000 C   0  0  0  0  0  3  0  0  0  0  0  0
  -21.2940   -4.6270   24.9180 C   0  0  0  0  0  0  0  0  0  0  0  0
  -21.7120   -4.0710   23.6960 C   0  0  0  0  0  3  0  0  0  0  0  0
  -21.8210   -4.8840   22.5540 C   0  0  0  0  0  0  0  0  0  0  0  0
  -22.2030   -4.3390   21.3750 F   0  0  0  0  0  0  0  0  0  0  0  0
  -21.1840   -3.8390   26.0130 F   0  0  0  0  0  0  0  0  0  0  0  0
  -22.7070  -13.6340   21.1240 C   0  0  0  0  0  0  0  0  0  0  0  0
  -21.9650  -12.9430   21.9820 N   0  0  0  0  0  0  0  0  0  0  0  0
  -22.2820  -14.6620   20.5970 O   0  0  0  0  0  0  0  0  0  0  0  0
  -22.3210  -12.1120   22.4290 H   0  0  0  0  0  0  0  0  0  0  0  0
  -21.0280  -13.2520   22.1960 H   0  0  0  0  0  0  0  0  0  0  0  0
  -25.3550  -15.2800   20.3220 N   0  0  0  0  0  0  0  0  0  0  0  0
  -24.5930  -15.9410   20.4210 H   0  0  0  0  0  0  0  0  0  0  0  0
  -26.2160  -15.7120   20.0060 H   0  0  0  0  0  0  0  0  0  0  0  0
  -28.2000  -25.3680   21.0040 C   0  0  0  0  0  2  0  0  0  0  0  0
  -28.3750  -26.6030   20.2460 O   0  0  0  0  0  0  0  0  0  0  0  0
  -24.5900  -31.9110   23.2340 C   0  0  0  0  0  0  0  0  0  0  0  0
  -27.2530  -27.4150   20.2050 C   0  0  0  0  0  0  0  0  0  0  0  0
  -23.4020  -30.4970   21.5920 C   0  0  0  0  0  3  0  0  0  0  0  0
  -24.8700  -28.9570   20.1800 C   0  0  0  0  0  0  0  0  0  0  0  0
  -25.9350  -30.8440   21.4220 C   0  0  0  0  0  2  0  0  0  0  0  0
  -26.0270  -29.4710   20.7810 C   0  0  0  0  0  0  0  0  0  0  0  0
  -27.2260  -28.7100   20.7860 C   0  0  0  0  0  3  0  0  0  0  0  0
  -26.0820  -26.9330   19.5820 C   0  0  0  0  0  3  0  0  0  0  0  0
  -24.8950  -27.6900   19.5730 C   0  0  0  0  0  3  0  0  0  0  0  0
  -23.6260  -29.8170   20.2170 C   0  0  0  0  0  2  0  0  0  0  0  0
  -24.6610  -31.0960   22.1430 N   0  0  0  0  0  0  0  0  0  0  0  0
  -23.4980  -32.2070   23.7380 O   0  0  0  0  0  0  0  0  0  0  0  0
  -22.7390  -29.4780   22.5500 C   0  0  0  0  0  0  0  0  0  0  0  0
  -21.4180  -29.2910   22.4070 N   0  0  0  0  0  0  0  0  0  0  0  0
  -23.4150  -28.8590   23.3760 O   0  0  0  0  0  0  0  0  0  0  0  0
  -20.9340  -29.8440   21.7130 H   0  0  0  0  0  0  0  0  0  0  0  0
  -18.0420  -28.0780   22.8620 C   0  0  0  0  0  0  0  0  0  0  0  0
  -20.5940  -28.3510   23.1690 C   0  0  0  0  0  3  0  0  0  0  0  0
  -20.7120  -26.9190   22.6000 C   0  0  0  0  0  2  0  0  0  0  0  0
  -19.6270  -26.5860   21.5720 C   0  0  0  0  0  2  0  0  0  0  0  0
  -18.2350  -26.7270   22.1950 C   0  0  0  0  0  2  0  0  0  0  0  0
  -19.1500  -28.8480   23.3050 C   0  0  0  0  0  0  0  0  0  0  0  0
  -18.9160  -30.1120   23.8880 C   0  0  0  0  0  3  0  0  0  0  0  0
  -17.6070  -30.6080   24.0320 C   0  0  0  0  0  3  0  0  0  0  0  0
  -16.5120  -29.8360   23.6060 C   0  0  0  0  0  3  0  0  0  0  0  0
  -16.7310  -28.5720   23.0270 C   0  0  0  0  0  3  0  0  0  0  0  0
  -25.8700  -32.5350   23.8750 C   0  0  0  0  0  3  0  0  0  0  0  0
  -26.3700  -31.7650   25.1590 C   0  0  1  0  0  0  0  0  0  0  0  0
  -25.2630  -31.5310   26.2140 C   0  0  0  0  0  1  0  0  0  0  0  0
  -26.9570  -30.3860   24.7770 C   0  0  0  0  0  1  0  0  0  0  0  0
  -27.5150  -32.5590   25.8330 C   0  0  0  0  0  1  0  0  0  0  0  0
  -25.5620  -33.9340   24.1990 N   0  0  0  0  0  0  0  0  0  0  0  0
  -25.8960  -34.9820   23.4340 C   0  0  0  0  0  0  0  0  0  0  0  0
  -26.5680  -34.8710   22.4040 O   0  0  0  0  0  0  0  0  0  0  0  0
  -24.9660  -34.0940   24.9970 H   0  0  0  0  0  0  0  0  0  0  0  0
  -24.1660  -36.7680   23.0640 C   0  0  0  0  0  1  0  0  0  0  0  0
  -25.4060  -36.3720   23.8800 C   0  0  0  0  0  3  0  0  0  0  0  0
  -27.5380  -37.2650   24.7080 C   0  0  0  0  0  1  0  0  0  0  0  0
  -26.4380  -37.4250   23.7610 N   0  0  0  0  0  0  0  0  0  0  0  0
  -26.0300  -38.3460   23.9010 H   0  0  0  0  0  0  0  0  0  0  0  0
  1  4  1  0
  1  2  1  0
  3  6  1  0
  3  4  1  0
  4  9  1  0
  5 51  1  0
  5  2  1  0
  6  5  1  0
  6  7  1  0
  8  6  1  0
  9 10  1  0
 10 12  1  0
 11  9  2  0
 13 10  1  0
 13 14  1  0
 15 14  1  0
 16 21  1  0
 17 18  1  0
 17 16  1  0
 19 18  1  0
 19 26  1  0
 19 20  1  0
 21 15  1  0
 21 20  1  0
 22 15  2  0
 23 24  2  0
 24 43  1  0
 25 24  1  0
 25 28  1  0
 26 23  1  0
 26 27  1  0
 27 25  2  0
 28 29  1  0
 29 30  2  0
 31 34  1  0
 31 30  1  0
 32 31  2  0
 33 32  1  0
 33 28  2  0
 34 35  1  0
 35 36  1  0
 36 37  2  0
 38 37  1  0
 38 42  1  0
 39 38  2  0
 40 35  2  0
 40 39  1  0
 41 40  1  0
 43 44  1  0
 44 47  1  0
 44 46  1  0
 45 43  2  0
 48 49  1  0
 48 23  1  0
 50 48  1  0
 52 51  1  0
 53 64  2  0
 54 52  1  0
 54 59  1  0
 55 63  1  0
 55 65  1  0
 56 62  1  0
 56 58  1  0
 57 63  1  0
 58 59  2  0
 58 57  1  0
 60 54  2  0
 61 60  1  0
 61 56  2  0
 62 55  1  0
 63 53  1  0
 65 67  2  0
 66 65  1  0
 68 66  1  0
 69 78  2  0
 69 74  1  0
 70 66  1  0
 70 74  1  0
 71 70  1  0
 72 73  1  0
 72 71  1  0
 73 69  1  0
 74 75  2  0
 75 76  1  0
 77 76  2  0
 78 77  1  0
 79 53  1  0
 79 84  1  0
 79 80  1  0
 80 83  1  1
 80 81  1  0
 82 80  1  0
 84 87  1  0
 85 89  1  0
 85 84  1  0
 86 85  2  0
 89 88  1  0
 91 89  1  0
 91 92  1  0
 91 90  1  0
M  ISO  4  14 100  15 100  51 101  52 101
M  END
>  <TORSDO>  (44) 
F 20

>  <SCORE>  (44) 
-13.954

>  <name>  (44) 
43

>  <ligand_id>  (44) 
43

>  <original_smiles>  (44) 
[H]c1c([H])c([H])c2c(c1[H])C([H])([H])C([H])([H])C([H])([H])C2([H])N([H])C(=O)C1([H])N(C(=O)C([H])(N([H])C(=O)C([H])(N([H])C([H])([H])[H])C([H])([H])[H])C(C([H])([H])[H])(C([H])([H])[H])C([H])([H])[H])C([H])([H])c2c([H])c(OC([H])([H])C3([H])C([H])([H])C([H])([H])C([H])(C(=O)N([H])C([H])([H])C([H])([H])C(=O)N4C([H])([H])C([H])([H])C([H])([H])C([H])(n5nc(-c6c([H])c([H])c(Oc7c([H])c([H])c(F)c([H])c7F)c([H])c6[H])c(C(=O)N([H])[H])c5N([H])[H])C4([H])[H])C([H])([H])[N+]3([H])[H])c([H])c([H])c2C1([H])[H]

>  <smiles>  (44) 
[H]c1c([H])c([H])c2c(c1[H])C([H])([H])C([H])([H])C([H])([H])C2([H])N([H])C(=O)C1([H])N(C(=O)C([H])(N([H])C(=O)C([H])(N([H])C([H])([H])[H])C([H])([H])[H])C(C([H])([H])[H])(C([H])([H])[H])C([H])([H])[H])C([H])([H])c2c([H])c(OC([H])([H])C3([H])C([H])([H])C([H])([H])C([H])(C(=O)N([H])C([H])([H])C([H])([H])C(=O)N4C([H])([H])C([H])([H])C([H])([H])C([H])(n5nc(-c6c([H])c([H])c(Oc7c([H])c([H])c(F)c([H])c7F)c([H])c6[H])c(C(=O)N([H])[H])c5N([H])[H])C4([H])[H])C([H])([H])[N+]3([H])[H])c([H])c([H])c2C1([H])[H]

$$$$
44:0:0
     RDKit          3D

 91 99  0  0  1  0  0  0  0  0999 V2000
  -28.7920  -21.0840   20.0650 C   0  0  0  0  0  0  0  0  0  0  0  0
  -29.0180  -22.3780   20.5170 N   0  0  0  0  0  0  0  0  0  0  0  0
  -27.9230  -20.8770   19.2170 O   0  0  0  0  0  0  0  0  0  0  0  0
  -29.6830  -22.4550   21.2720 H   0  0  0  0  0  0  0  0  0  0  0  0
  -31.7590  -19.0210   21.4760 C   0  0  0  0  0  3  0  0  0  0  0  0
  -30.9110  -20.0920   21.1240 C   0  0  0  0  0  3  0  0  0  0  0  0
  -31.3850  -17.6770   21.2730 C   0  0  0  0  0  3  0  0  0  0  0  0
  -29.2730  -18.4600   20.3630 C   0  0  0  0  0  3  0  0  0  0  0  0
  -29.6380  -19.8640   20.5560 C   0  0  0  0  0  0  0  0  0  0  0  0
  -30.1360  -17.3320   20.7080 C   0  0  0  0  0  0  0  0  0  0  0  0
  -30.5630  -14.7570   20.3790 C   0  0  0  0  0  0  0  0  0  0  0  0
  -30.3540  -12.4880   19.3390 C   0  0  0  0  0  2  0  0  0  0  0  0
  -29.4120  -12.5780   18.1200 C   0  0  0  0  0  2  0  0  0  0  0  0
  -27.9430  -12.4080   18.5540 C   0  0  0  0  0  2  0  0  0  0  0  0
  -27.5750  -13.2760   19.7890 C   0  0  0  0  0  3  0  0  0  0  0  0
  -28.6420  -13.1740   20.9010 C   0  0  0  0  0  2  0  0  0  0  0  0
  -29.9310  -13.5350   20.2980 N   0  0  0  0  0  0  0  0  0  0  0  0
  -31.7550  -14.8410   20.0680 O   0  0  0  0  0  0  0  0  0  0  0  0
  -29.7780  -15.8930   20.5600 N   0  0  0  0  0  0  0  0  0  0  0  0
  -28.7900  -15.6960   20.5910 H   0  0  0  0  0  0  0  0  0  0  0  0
  -25.1890  -13.8550   20.5290 C   0  0  0  0  0  0  0  0  0  0  0  0
  -24.1280  -13.0770   20.9030 C   0  0  0  0  0  0  0  0  0  0  0  0
  -24.5970  -11.7270   20.8700 C   0  0  0  0  0  0  0  0  0  0  0  0
  -26.2350  -12.9810   20.2870 N   0  0  0  0  0  0  0  0  0  0  0  0
  -25.8860  -11.6960   20.5540 N   0  0  0  0  0  0  0  0  0  0  0  0
  -23.8760  -10.4630   21.0620 C   0  0  0  0  0  0  0  0  0  0  0  0
  -24.3210   -9.4890   21.9830 C   0  0  0  0  0  3  0  0  0  0  0  0
  -23.6000   -8.2890   22.1630 C   0  0  0  0  0  3  0  0  0  0  0  0
  -22.4170   -8.0550   21.4210 C   0  0  0  0  0  0  0  0  0  0  0  0
  -21.9900   -9.0170   20.4880 C   0  0  0  0  0  3  0  0  0  0  0  0
  -22.7130  -10.2080   20.3060 C   0  0  0  0  0  3  0  0  0  0  0  0
  -21.6640   -6.9080   21.5110 O   0  0  0  0  0  0  0  0  0  0  0  0
  -21.6410   -6.1520   22.6540 C   0  0  0  0  0  0  0  0  0  0  0  0
  -21.2450   -6.6900   23.8980 C   0  0  0  0  0  3  0  0  0  0  0  0
  -21.1700   -5.8600   25.0340 C   0  0  0  0  0  3  0  0  0  0  0  0
  -21.4800   -4.4900   24.9270 C   0  0  0  0  0  0  0  0  0  0  0  0
  -21.8670   -3.9510   23.6880 C   0  0  0  0  0  3  0  0  0  0  0  0
  -21.9460   -4.7780   22.5540 C   0  0  0  0  0  0  0  0  0  0  0  0
  -22.3000   -4.2500   21.3580 F   0  0  0  0  0  0  0  0  0  0  0  0
  -21.4000   -3.6890   26.0150 F   0  0  0  0  0  0  0  0  0  0  0  0
  -22.7300  -13.5490   21.1780 C   0  0  0  0  0  0  0  0  0  0  0  0
  -22.0070  -12.8500   22.0450 N   0  0  0  0  0  0  0  0  0  0  0  0
  -22.2860  -14.5720   20.6580 O   0  0  0  0  0  0  0  0  0  0  0  0
  -22.3790  -12.0240   22.4900 H   0  0  0  0  0  0  0  0  0  0  0  0
  -21.0680  -13.1470   22.2700 H   0  0  0  0  0  0  0  0  0  0  0  0
  -25.3440  -15.2270   20.3460 N   0  0  0  0  0  0  0  0  0  0  0  0
  -24.5620  -15.8690   20.4340 H   0  0  0  0  0  0  0  0  0  0  0  0
  -26.1690  -15.6670   19.9620 H   0  0  0  0  0  0  0  0  0  0  0  0
  -28.6200  -23.7110   19.8590 C   0  0  0  0  0  2  0  0  0  0  0  0
  -28.2350  -25.0180   20.7410 C   0  0  0  0  0  2  0  0  0  0  0  0
  -28.3450  -26.4240   20.2110 O   0  0  0  0  0  0  0  0  0  0  0  0
  -24.6100  -31.8950   23.2300 C   0  0  0  0  0  0  0  0  0  0  0  0
  -27.2260  -27.2830   20.2170 C   0  0  0  0  0  0  0  0  0  0  0  0
  -23.4100  -30.4770   21.6070 C   0  0  0  0  0  3  0  0  0  0  0  0
  -24.8640  -28.9110   20.1920 C   0  0  0  0  0  0  0  0  0  0  0  0
  -25.9520  -30.7890   21.4250 C   0  0  0  0  0  2  0  0  0  0  0  0
  -26.0340  -29.4030   20.7860 C   0  0  0  0  0  0  0  0  0  0  0  0
  -27.2210  -28.6040   20.7790 C   0  0  0  0  0  3  0  0  0  0  0  0
  -26.0350  -26.8490   19.6030 C   0  0  0  0  0  3  0  0  0  0  0  0
  -24.8680  -27.6430   19.5890 C   0  0  0  0  0  3  0  0  0  0  0  0
  -23.6270  -29.7890   20.2320 C   0  0  0  0  0  2  0  0  0  0  0  0
  -24.6770  -31.0670   22.1470 N   0  0  0  0  0  0  0  0  0  0  0  0
  -23.5190  -32.2050   23.7300 O   0  0  0  0  0  0  0  0  0  0  0  0
  -22.7440  -29.4670   22.5740 C   0  0  0  0  0  0  0  0  0  0  0  0
  -21.4170  -29.2910   22.4500 N   0  0  0  0  0  0  0  0  0  0  0  0
  -23.4210  -28.8440   23.3950 O   0  0  0  0  0  0  0  0  0  0  0  0
  -20.9280  -29.8470   21.7620 H   0  0  0  0  0  0  0  0  0  0  0  0
  -18.0390  -28.0970   22.9570 C   0  0  0  0  0  0  0  0  0  0  0  0
  -20.5980  -28.3550   23.2230 C   0  0  0  0  0  3  0  0  0  0  0  0
  -20.6970  -26.9240   22.6470 C   0  0  0  0  0  2  0  0  0  0  0  0
  -19.5940  -26.6010   21.6350 C   0  0  0  0  0  2  0  0  0  0  0  0
  -18.2130  -26.7480   22.2800 C   0  0  0  0  0  2  0  0  0  0  0  0
  -19.1590  -28.8580   23.3850 C   0  0  0  0  0  0  0  0  0  0  0  0
  -18.9410  -30.1210   23.9770 C   0  0  0  0  0  3  0  0  0  0  0  0
  -17.6360  -30.6230   24.1460 C   0  0  0  0  0  3  0  0  0  0  0  0
  -16.5300  -29.8580   23.7350 C   0  0  0  0  0  3  0  0  0  0  0  0
  -16.7330  -28.5970   23.1460 C   0  0  0  0  0  3  0  0  0  0  0  0
  -25.8910  -32.5200   23.8670 C   0  0  0  0  0  3  0  0  0  0  0  0
  -26.3980  -31.7500   25.1500 C   0  0  1  0  0  0  0  0  0  0  0  0
  -25.2990  -31.5190   26.2120 C   0  0  0  0  0  1  0  0  0  0  0  0
  -26.9800  -30.3710   24.7660 C   0  0  0  0  0  1  0  0  0  0  0  0
  -27.5500  -32.5410   25.8150 C   0  0  0  0  0  1  0  0  0  0  0  0
  -25.5850  -33.9200   24.1980 N   0  0  0  0  0  0  0  0  0  0  0  0
  -25.9180  -34.9710   23.4370 C   0  0  0  0  0  0  0  0  0  0  0  0
  -26.5860  -34.8640   22.4040 O   0  0  0  0  0  0  0  0  0  0  0  0
  -24.9920  -34.0760   25.0000 H   0  0  0  0  0  0  0  0  0  0  0  0
  -24.1900  -36.7640   23.0810 C   0  0  0  0  0  1  0  0  0  0  0  0
  -25.4320  -36.3610   23.8910 C   0  0  0  0  0  3  0  0  0  0  0  0
  -27.5690  -37.2450   24.7170 C   0  0  0  0  0  1  0  0  0  0  0  0
  -26.4660  -37.4120   23.7740 N   0  0  0  0  0  0  0  0  0  0  0  0
  -26.0610  -38.3330   23.9200 H   0  0  0  0  0  0  0  0  0  0  0  0
  1  2  1  0
  1  9  1  0
  2  4  1  0
  3  1  2  0
  6  5  2  0
  7  5  1  0
  8  9  2  0
  8 10  1  0
  9  6  1  0
 10  7  2  0
 11 19  1  0
 12 17  1  0
 13 14  1  0
 13 12  1  0
 15 14  1  0
 15 24  1  0
 15 16  1  0
 17 11  1  0
 17 16  1  0
 18 11  2  0
 19 20  1  0
 19 10  1  0
 21 22  2  0
 22 41  1  0
 23 22  1  0
 23 26  1  0
 24 21  1  0
 24 25  1  0
 25 23  2  0
 26 27  1  0
 27 28  2  0
 29 32  1  0
 29 28  1  0
 30 29  2  0
 31 30  1  0
 31 26  2  0
 32 33  1  0
 33 34  1  0
 34 35  2  0
 36 35  1  0
 36 40  1  0
 37 36  2  0
 38 33  2  0
 38 37  1  0
 39 38  1  0
 41 42  1  0
 42 45  1  0
 42 44  1  0
 43 41  2  0
 46 47  1  0
 46 21  1  0
 48 46  1  0
 49  2  1  0
 49 50  1  0
 51 53  1  0
 51 50  1  0
 52 63  2  0
 53 58  1  0
 54 62  1  0
 54 64  1  0
 55 61  1  0
 55 57  1  0
 56 62  1  0
 57 56  1  0
 58 57  2  0
 59 53  2  0
 60 59  1  0
 60 55  2  0
 61 54  1  0
 62 52  1  0
 64 66  2  0
 65 64  1  0
 67 65  1  0
 68 77  2  0
 68 73  1  0
 69 65  1  0
 69 73  1  0
 70 69  1  0
 71 72  1  0
 71 70  1  0
 72 68  1  0
 73 74  2  0
 74 75  1  0
 76 75  2  0
 77 76  1  0
 78 52  1  0
 78 83  1  0
 78 79  1  0
 79 82  1  1
 79 80  1  0
 81 79  1  0
 83 86  1  0
 84 88  1  0
 84 83  1  0
 85 84  2  0
 88 87  1  0
 90 88  1  0
 90 91  1  0
 90 89  1  0
M  ISO  4  11 100  19 100  50 101  51 101
M  END
>  <TORSDO>  (45) 
F 19

>  <SCORE>  (45) 
-14.465

>  <name>  (45) 
44

>  <ligand_id>  (45) 
44

>  <original_smiles>  (45) 
[H]c1c([H])c(C(=O)N([H])C([H])([H])C([H])([H])Oc2c([H])c([H])c3c(c2[H])C([H])([H])N(C(=O)C([H])(N([H])C(=O)C([H])(N([H])C([H])([H])[H])C([H])([H])[H])C(C([H])([H])[H])(C([H])([H])[H])C([H])([H])[H])C([H])(C(=O)N([H])C2([H])c4c([H])c([H])c([H])c([H])c4C([H])([H])C([H])([H])C2([H])[H])C3([H])[H])c([H])c(N([H])C(=O)N2C([H])([H])C([H])([H])C([H])([H])C([H])(n3nc(-c4c([H])c([H])c(Oc5c([H])c([H])c(F)c([H])c5F)c([H])c4[H])c(C(=O)N([H])[H])c3N([H])[H])C2([H])[H])c1[H]

>  <smiles>  (45) 
[H]c1c([H])c(C(=O)N([H])C([H])([H])C([H])([H])Oc2c([H])c([H])c3c(c2[H])C([H])([H])N(C(=O)C([H])(N([H])C(=O)C([H])(N([H])C([H])([H])[H])C([H])([H])[H])C(C([H])([H])[H])(C([H])([H])[H])C([H])([H])[H])C([H])(C(=O)N([H])C2([H])c4c([H])c([H])c([H])c([H])c4C([H])([H])C([H])([H])C2([H])[H])C3([H])[H])c([H])c(N([H])C(=O)N2C([H])([H])C([H])([H])C([H])([H])C([H])(n3nc(-c4c([H])c([H])c(Oc5c([H])c([H])c(F)c([H])c5F)c([H])c4[H])c(C(=O)N([H])[H])c3N([H])[H])C2([H])[H])c1[H]

$$$$
45:0:0
     RDKit          3D

 95103  0  0  1  0  0  0  0  0999 V2000
  -33.0630  -22.5630   19.1630 C   0  0  0  0  0  3  0  0  0  0  0  0
  -32.9470  -21.3570   19.8750 C   0  0  0  0  0  3  0  0  0  0  0  0
  -32.0450  -23.5260   19.2460 C   0  0  0  0  0  3  0  0  0  0  0  0
  -30.7990  -22.0930   20.7790 C   0  0  0  0  0  3  0  0  0  0  0  0
  -31.8070  -21.0970   20.6710 C   0  0  0  0  0  0  0  0  0  0  0  0
  -30.9150  -23.3100   20.0590 C   0  0  0  0  0  0  0  0  0  0  0  0
  -31.7190  -19.7710   21.3820 C   0  0  0  0  0  0  0  0  0  0  0  0
  -30.5010  -19.2190   21.4830 N   0  0  0  0  0  0  0  0  0  0  0  0
  -32.7400  -19.1840   21.7440 O   0  0  0  0  0  0  0  0  0  0  0  0
  -29.7220  -19.7720   21.1560 H   0  0  0  0  0  0  0  0  0  0  0  0
  -30.2290  -17.8370   21.8870 C   0  0  0  0  0  2  0  0  0  0  0  0
  -30.2960  -16.8950   20.6640 C   0  0  0  0  0  2  0  0  0  0  0  0
  -30.6930  -14.4500   20.4620 C   0  0  0  0  0  0  0  0  0  0  0  0
  -30.3620  -12.3040   19.3050 C   0  0  0  0  0  2  0  0  0  0  0  0
  -29.4230  -12.5340   18.1000 C   0  0  0  0  0  2  0  0  0  0  0  0
  -27.9500  -12.3970   18.5310 C   0  0  0  0  0  2  0  0  0  0  0  0
  -27.6200  -13.2320   19.7980 C   0  0  0  0  0  3  0  0  0  0  0  0
  -28.6740  -13.0000   20.9070 C   0  0  0  0  0  2  0  0  0  0  0  0
  -30.0040  -13.2840   20.3410 N   0  0  0  0  0  0  0  0  0  0  0  0
  -31.8110  -14.6190   19.9690 O   0  0  0  0  0  0  0  0  0  0  0  0
  -29.9980  -15.4870   20.9650 N   0  0  0  0  0  0  0  0  0  0  0  0
  -29.0830  -15.2810   21.3390 H   0  0  0  0  0  0  0  0  0  0  0  0
  -25.2180  -13.8430   20.5010 C   0  0  0  0  0  0  0  0  0  0  0  0
  -24.1510  -13.0700   20.8760 C   0  0  0  0  0  0  0  0  0  0  0  0
  -24.6150  -11.7190   20.8510 C   0  0  0  0  0  0  0  0  0  0  0  0
  -26.2660  -12.9610   20.2750 N   0  0  0  0  0  0  0  0  0  0  0  0
  -25.9050  -11.6800   20.5440 N   0  0  0  0  0  0  0  0  0  0  0  0
  -23.8900  -10.4560   21.0460 C   0  0  0  0  0  0  0  0  0  0  0  0
  -24.3380   -9.4840   21.9720 C   0  0  0  0  0  3  0  0  0  0  0  0
  -23.6130   -8.2870   22.1570 C   0  0  0  0  0  3  0  0  0  0  0  0
  -22.4280   -8.0540   21.4200 C   0  0  0  0  0  0  0  0  0  0  0  0
  -22.0000   -9.0140   20.4860 C   0  0  0  0  0  3  0  0  0  0  0  0
  -22.7240  -10.2020   20.2970 C   0  0  0  0  0  3  0  0  0  0  0  0
  -21.6750   -6.9090   21.5130 O   0  0  0  0  0  0  0  0  0  0  0  0
  -21.6600   -6.1510   22.6580 C   0  0  0  0  0  0  0  0  0  0  0  0
  -21.2880   -6.6950   23.9060 C   0  0  0  0  0  3  0  0  0  0  0  0
  -21.2160   -5.8640   25.0430 C   0  0  0  0  0  3  0  0  0  0  0  0
  -21.5100   -4.4920   24.9310 C   0  0  0  0  0  0  0  0  0  0  0  0
  -21.8760   -3.9490   23.6870 C   0  0  0  0  0  3  0  0  0  0  0  0
  -21.9480   -4.7760   22.5540 C   0  0  0  0  0  0  0  0  0  0  0  0
  -22.2820   -4.2440   21.3520 F   0  0  0  0  0  0  0  0  0  0  0  0
  -21.4330   -3.6930   26.0200 F   0  0  0  0  0  0  0  0  0  0  0  0
  -22.7530  -13.5490   21.1450 C   0  0  0  0  0  0  0  0  0  0  0  0
  -22.0270  -12.8590   22.0200 N   0  0  0  0  0  0  0  0  0  0  0  0
  -22.3120  -14.5680   20.6160 O   0  0  0  0  0  0  0  0  0  0  0  0
  -22.3960  -12.0370   22.4740 H   0  0  0  0  0  0  0  0  0  0  0  0
  -21.0880  -13.1620   22.2390 H   0  0  0  0  0  0  0  0  0  0  0  0
  -25.3800  -15.2120   20.3170 N   0  0  0  0  0  0  0  0  0  0  0  0
  -24.6130  -15.8680   20.4190 H   0  0  0  0  0  0  0  0  0  0  0  0
  -26.2250  -15.6440   19.9650 H   0  0  0  0  0  0  0  0  0  0  0  0
  -29.9450  -24.3240   20.0750 N   0  0  0  0  0  0  0  0  0  0  0  0
  -30.0840  -25.1250   19.4640 H   0  0  0  0  0  0  0  0  0  0  0  0
  -29.1050  -24.6000   21.2350 C   0  0  0  0  0  2  0  0  0  0  0  0
  -28.8660  -26.1230   21.3920 C   0  0  0  0  0  2  0  0  0  0  0  0
  -28.4320  -26.6870   20.1480 O   0  0  0  0  0  0  0  0  0  0  0  0
  -24.6430  -31.8900   23.2560 C   0  0  0  0  0  0  0  0  0  0  0  0
  -27.2820  -27.4390   20.1990 C   0  0  0  0  0  0  0  0  0  0  0  0
  -23.4340  -30.4790   21.6230 C   0  0  0  0  0  3  0  0  0  0  0  0
  -24.8870  -28.9340   20.2060 C   0  0  0  0  0  0  0  0  0  0  0  0
  -25.9590  -30.8350   21.4260 C   0  0  0  0  0  2  0  0  0  0  0  0
  -26.0440  -29.4600   20.7970 C   0  0  0  0  0  0  0  0  0  0  0  0
  -27.2440  -28.7150   20.8030 C   0  0  0  0  0  3  0  0  0  0  0  0
  -26.1190  -26.9290   19.5890 C   0  0  0  0  0  3  0  0  0  0  0  0
  -24.9170  -27.6630   19.6050 C   0  0  0  0  0  3  0  0  0  0  0  0
  -23.6420  -29.7920   20.2460 C   0  0  0  0  0  2  0  0  0  0  0  0
  -24.6970  -31.0800   22.1610 N   0  0  0  0  0  0  0  0  0  0  0  0
  -23.5590  -32.1880   23.7760 O   0  0  0  0  0  0  0  0  0  0  0  0
  -22.7820  -29.4620   22.5870 C   0  0  0  0  0  0  0  0  0  0  0  0
  -21.4580  -29.2750   22.4590 N   0  0  0  0  0  0  0  0  0  0  0  0
  -23.4660  -28.8420   23.4070 O   0  0  0  0  0  0  0  0  0  0  0  0
  -20.9680  -29.8210   21.7640 H   0  0  0  0  0  0  0  0  0  0  0  0
  -18.0890  -28.0700   22.9540 C   0  0  0  0  0  0  0  0  0  0  0  0
  -20.6440  -28.3390   23.2330 C   0  0  0  0  0  3  0  0  0  0  0  0
  -20.7560  -26.9050   22.6670 C   0  0  0  0  0  2  0  0  0  0  0  0
  -19.6590  -26.5730   21.6510 C   0  0  0  0  0  2  0  0  0  0  0  0
  -18.2740  -26.7180   22.2870 C   0  0  0  0  0  2  0  0  0  0  0  0
  -19.2030  -28.8390   23.3840 C   0  0  0  0  0  0  0  0  0  0  0  0
  -18.9790  -30.1040   23.9670 C   0  0  0  0  0  3  0  0  0  0  0  0
  -17.6720  -30.6030   24.1240 C   0  0  0  0  0  3  0  0  0  0  0  0
  -16.5710  -29.8320   23.7100 C   0  0  0  0  0  3  0  0  0  0  0  0
  -16.7810  -28.5680   23.1310 C   0  0  0  0  0  3  0  0  0  0  0  0
  -25.9340  -32.5130   23.8770 C   0  0  0  0  0  3  0  0  0  0  0  0
  -25.6320  -33.9110   24.2110 N   0  0  0  0  0  0  0  0  0  0  0  0
  -25.9570  -34.9610   23.4440 C   0  0  0  0  0  0  0  0  0  0  0  0
  -26.6170  -34.8540   22.4070 O   0  0  0  0  0  0  0  0  0  0  0  0
  -25.0480  -34.0690   25.0180 H   0  0  0  0  0  0  0  0  0  0  0  0
  -24.2210  -36.7470   23.1010 C   0  0  0  0  0  1  0  0  0  0  0  0
  -25.4710  -36.3500   23.9020 C   0  0  0  0  0  3  0  0  0  0  0  0
  -27.6130  -37.2380   24.7050 C   0  0  0  0  0  1  0  0  0  0  0  0
  -26.5020  -37.4030   23.7720 N   0  0  0  0  0  0  0  0  0  0  0  0
  -26.0970  -38.3220   23.9210 H   0  0  0  0  0  0  0  0  0  0  0  0
  -26.4570  -31.7370   25.1480 C   0  0  1  0  0  0  0  0  0  0  0  0
  -25.3700  -31.4980   26.2200 C   0  0  0  0  0  1  0  0  0  0  0  0
  -27.0360  -30.3590   24.7510 C   0  0  0  0  0  1  0  0  0  0  0  0
  -27.6140  -32.5270   25.8070 C   0  0  0  0  0  1  0  0  0  0  0  0
  1  3  2  0
  1  2  1  0
  2  5  2  0
  3  6  1  0
  5  4  1  0
  5  7  1  0
  6 51  1  0
  6  4  2  0
  7  8  1  0
  7  9  2  0
  8 11  1  0
 10  8  1  0
 12 21  1  0
 12 11  1  0
 13 21  1  0
 14 19  1  0
 15 16  1  0
 15 14  1  0
 17 16  1  0
 17 26  1  0
 17 18  1  0
 19 13  1  0
 19 18  1  0
 20 13  2  0
 21 22  1  0
 23 24  2  0
 24 43  1  0
 25 24  1  0
 25 28  1  0
 26 23  1  0
 26 27  1  0
 27 25  2  0
 28 29  1  0
 29 30  2  0
 31 34  1  0
 31 30  1  0
 32 31  2  0
 33 32  1  0
 33 28  2  0
 34 35  1  0
 35 36  1  0
 36 37  2  0
 38 37  1  0
 38 42  1  0
 39 38  2  0
 40 35  2  0
 40 39  1  0
 41 40  1  0
 43 44  1  0
 44 47  1  0
 44 46  1  0
 45 43  2  0
 48 49  1  0
 48 23  1  0
 50 48  1  0
 51 53  1  0
 52 51  1  0
 53 54  1  0
 55 57  1  0
 55 54  1  0
 56 67  2  0
 57 62  1  0
 58 66  1  0
 58 68  1  0
 59 65  1  0
 59 61  1  0
 60 66  1  0
 61 62  2  0
 61 60  1  0
 63 64  1  0
 63 57  2  0
 64 59  2  0
 65 58  1  0
 66 56  1  0
 68 70  2  0
 69 68  1  0
 71 69  1  0
 72 81  2  0
 72 77  1  0
 73 69  1  0
 73 77  1  0
 74 73  1  0
 75 76  1  0
 75 74  1  0
 76 72  1  0
 77 78  2  0
 78 79  1  0
 80 79  2  0
 81 80  1  0
 82 56  1  0
 82 83  1  0
 82 92  1  0
 83 86  1  0
 84 88  1  0
 84 83  1  0
 85 84  2  0
 88 87  1  0
 90 88  1  0
 90 91  1  0
 90 89  1  0
 92 95  1  1
 92 93  1  0
 94 92  1  0
M  ISO  4  13 100  21 100  54 101  55 101
M  END
>  <TORSDO>  (46) 
F 22

>  <SCORE>  (46) 
-13.161

>  <name>  (46) 
45

>  <ligand_id>  (46) 
45

>  <original_smiles>  (46) 
[H]c1c([H])c(C(=O)N([H])C([H])([H])C([H])([H])N([H])C(=O)N2C([H])([H])C([H])([H])C([H])([H])C([H])(n3nc(-c4c([H])c([H])c(Oc5c([H])c([H])c(F)c([H])c5F)c([H])c4[H])c(C(=O)N([H])[H])c3N([H])[H])C2([H])[H])c([H])c(N([H])C([H])([H])C([H])([H])Oc2c([H])c([H])c3c(c2[H])C([H])([H])N(C(=O)C([H])(N([H])C(=O)C([H])(N([H])C([H])([H])[H])C([H])([H])[H])C(C([H])([H])[H])(C([H])([H])[H])C([H])([H])[H])C([H])(C(=O)N([H])C2([H])c4c([H])c([H])c([H])c([H])c4C([H])([H])C([H])([H])C2([H])[H])C3([H])[H])c1[H]

>  <smiles>  (46) 
[H]c1c([H])c(C(=O)N([H])C([H])([H])C([H])([H])N([H])C(=O)N2C([H])([H])C([H])([H])C([H])([H])C([H])(n3nc(-c4c([H])c([H])c(Oc5c([H])c([H])c(F)c([H])c5F)c([H])c4[H])c(C(=O)N([H])[H])c3N([H])[H])C2([H])[H])c([H])c(N([H])C([H])([H])C([H])([H])Oc2c([H])c([H])c3c(c2[H])C([H])([H])N(C(=O)C([H])(N([H])C(=O)C([H])(N([H])C([H])([H])[H])C([H])([H])[H])C(C([H])([H])[H])(C([H])([H])[H])C([H])([H])[H])C([H])(C(=O)N([H])C2([H])c4c([H])c([H])c([H])c([H])c4C([H])([H])C([H])([H])C2([H])[H])C3([H])[H])c1[H]

$$$$
46:0:0
     RDKit          3D

 91 99  0  0  1  0  0  0  0  0999 V2000
  -30.6830  -22.6000   20.6520 N   0  0  0  0  0  4  0  0  0  0  0  0
  -31.4150  -23.2030   20.3210 H   0  0  0  0  0  0  0  0  0  0  0  0
  -30.8480  -22.4480   21.6370 H   0  0  0  0  0  0  0  0  0  0  0  0
  -30.7720  -21.3530   19.8900 C   0  0  0  0  0  2  0  0  0  0  0  0
  -29.9530  -19.0660   20.6630 C   0  0  0  0  0  2  0  0  0  0  0  0
  -31.6490  -18.2080   22.0090 C   0  0  0  0  0  2  0  0  0  0  0  0
  -30.5510  -17.9360   21.2440 C   0  0  0  0  0  3  0  0  0  0  0  0
  -30.7770  -20.1540   20.7630 C   0  0  0  0  0  3  0  0  0  0  0  0
  -32.0710  -19.8960   21.9160 S   0  0  0  0  0  0  0  0  0  0  0  0
  -30.3260  -16.6260   20.6480 C   0  0  0  0  0  2  0  0  0  0  0  0
  -30.2770  -15.4340   21.2610 C   0  0  0  0  0  2  0  0  0  0  0  0
  -30.6980  -14.3610   20.3990 C   0  0  0  0  0  0  0  0  0  0  0  0
  -30.2450  -12.2720   19.2450 C   0  0  0  0  0  2  0  0  0  0  0  0
  -29.3470  -12.5550   18.0160 C   0  0  0  0  0  2  0  0  0  0  0  0
  -27.8620  -12.4800   18.4260 C   0  0  0  0  0  2  0  0  0  0  0  0
  -27.5550  -13.2640   19.7350 C   0  0  0  0  0  3  0  0  0  0  0  0
  -28.5910  -13.0260   20.8580 C   0  0  0  0  0  2  0  0  0  0  0  0
  -29.9310  -13.2530   20.2960 N   0  0  0  0  0  0  0  0  0  0  0  0
  -31.7360  -14.5220   19.7560 O   0  0  0  0  0  0  0  0  0  0  0  0
  -25.1730  -13.8570   20.4880 C   0  0  0  0  0  0  0  0  0  0  0  0
  -24.1180  -13.0780   20.8730 C   0  0  0  0  0  0  0  0  0  0  0  0
  -24.5800  -11.7280   20.8400 C   0  0  0  0  0  0  0  0  0  0  0  0
  -26.2130  -12.9800   20.2290 N   0  0  0  0  0  0  0  0  0  0  0  0
  -25.8660  -11.6950   20.5010 N   0  0  0  0  0  0  0  0  0  0  0  0
  -23.8640  -10.4660   21.0400 C   0  0  0  0  0  0  0  0  0  0  0  0
  -24.3260   -9.4880   21.9490 C   0  0  0  0  0  3  0  0  0  0  0  0
  -23.6100   -8.2870   22.1380 C   0  0  0  0  0  3  0  0  0  0  0  0
  -22.4150   -8.0560   21.4110 C   0  0  0  0  0  0  0  0  0  0  0  0
  -21.9750   -9.0230   20.4850 C   0  0  0  0  0  3  0  0  0  0  0  0
  -22.6960  -10.2110   20.2980 C   0  0  0  0  0  3  0  0  0  0  0  0
  -21.6660   -6.9100   21.5040 O   0  0  0  0  0  0  0  0  0  0  0  0
  -21.6620   -6.1420   22.6430 C   0  0  0  0  0  0  0  0  0  0  0  0
  -21.3090   -6.6780   23.8990 C   0  0  0  0  0  3  0  0  0  0  0  0
  -21.2540   -5.8350   25.0290 C   0  0  0  0  0  3  0  0  0  0  0  0
  -21.5450   -4.4660   24.9010 C   0  0  0  0  0  0  0  0  0  0  0  0
  -21.8940   -3.9310   23.6490 C   0  0  0  0  0  3  0  0  0  0  0  0
  -21.9540   -4.7710   22.5200 C   0  0  0  0  0  0  0  0  0  0  0  0
  -22.2670   -4.2510   21.3110 F   0  0  0  0  0  0  0  0  0  0  0  0
  -21.4860   -3.6540   25.9850 F   0  0  0  0  0  0  0  0  0  0  0  0
  -22.7200  -13.5590   21.1520 C   0  0  0  0  0  0  0  0  0  0  0  0
  -21.9960  -12.8720   22.0270 N   0  0  0  0  0  0  0  0  0  0  0  0
  -22.2760  -14.5790   20.6220 O   0  0  0  0  0  0  0  0  0  0  0  0
  -22.3700  -12.0540   22.4870 H   0  0  0  0  0  0  0  0  0  0  0  0
  -21.0560  -13.1710   22.2370 H   0  0  0  0  0  0  0  0  0  0  0  0
  -25.3490  -15.2290   20.3170 N   0  0  0  0  0  0  0  0  0  0  0  0
  -24.5920  -15.8980   20.4080 H   0  0  0  0  0  0  0  0  0  0  0  0
  -26.2130  -15.6610   20.0320 H   0  0  0  0  0  0  0  0  0  0  0  0
  -29.4160  -23.3050   20.4650 C   0  0  0  0  0  2  0  0  0  0  0  0
  -29.6630  -24.7840   20.1900 C   0  0  0  0  0  2  0  0  0  0  0  0
  -28.3360  -25.4750   20.3990 C   0  0  0  0  0  2  0  0  0  0  0  0
  -28.4340  -26.8530   20.0990 O   0  0  0  0  0  0  0  0  0  0  0  0
  -24.5750  -31.9100   23.2540 C   0  0  0  0  0  0  0  0  0  0  0  0
  -27.2370  -27.5150   20.1490 C   0  0  0  0  0  0  0  0  0  0  0  0
  -23.3690  -30.4900   21.6230 C   0  0  0  0  0  3  0  0  0  0  0  0
  -24.8250  -28.9530   20.2040 C   0  0  0  0  0  0  0  0  0  0  0  0
  -25.8890  -30.8640   21.4160 C   0  0  0  0  0  2  0  0  0  0  0  0
  -25.9780  -29.4930   20.7910 C   0  0  0  0  0  0  0  0  0  0  0  0
  -27.1880  -28.7760   20.7720 C   0  0  0  0  0  3  0  0  0  0  0  0
  -26.0700  -26.9800   19.5580 C   0  0  0  0  0  3  0  0  0  0  0  0
  -24.8610  -27.6890   19.5980 C   0  0  0  0  0  3  0  0  0  0  0  0
  -23.5690  -29.7920   20.2510 C   0  0  0  0  0  2  0  0  0  0  0  0
  -24.6290  -31.1050   22.1550 N   0  0  0  0  0  0  0  0  0  0  0  0
  -23.4890  -32.2000   23.7760 O   0  0  0  0  0  0  0  0  0  0  0  0
  -22.7250  -29.4770   22.5970 C   0  0  0  0  0  0  0  0  0  0  0  0
  -21.3980  -29.2910   22.4780 N   0  0  0  0  0  0  0  0  0  0  0  0
  -23.4100  -28.8670   23.4220 O   0  0  0  0  0  0  0  0  0  0  0  0
  -20.9120  -29.8380   21.7800 H   0  0  0  0  0  0  0  0  0  0  0  0
  -18.0330  -28.0730   22.9680 C   0  0  0  0  0  0  0  0  0  0  0  0
  -20.5860  -28.3560   23.2530 C   0  0  0  0  0  3  0  0  0  0  0  0
  -20.7040  -26.9200   22.6940 C   0  0  0  0  0  2  0  0  0  0  0  0
  -19.6080  -26.5770   21.6780 C   0  0  0  0  0  2  0  0  0  0  0  0
  -18.2230  -26.7160   22.3130 C   0  0  0  0  0  2  0  0  0  0  0  0
  -19.1430  -28.8500   23.3960 C   0  0  0  0  0  0  0  0  0  0  0  0
  -18.9100  -30.1170   23.9750 C   0  0  0  0  0  3  0  0  0  0  0  0
  -17.6000  -30.6090   24.1280 C   0  0  0  0  0  3  0  0  0  0  0  0
  -16.5070  -29.8330   23.7120 C   0  0  0  0  0  3  0  0  0  0  0  0
  -16.7230  -28.5660   23.1420 C   0  0  0  0  0  3  0  0  0  0  0  0
  -25.8670  -32.5330   23.8780 C   0  0  0  0  0  3  0  0  0  0  0  0
  -25.5620  -33.9340   24.2000 N   0  0  0  0  0  0  0  0  0  0  0  0
  -25.8970  -34.9800   23.4360 C   0  0  0  0  0  0  0  0  0  0  0  0
  -26.5660  -34.8750   22.4050 O   0  0  0  0  0  0  0  0  0  0  0  0
  -24.9560  -34.0920   24.9940 H   0  0  0  0  0  0  0  0  0  0  0  0
  -24.1620  -36.7710   23.0890 C   0  0  0  0  0  1  0  0  0  0  0  0
  -25.4120  -36.3760   23.8900 C   0  0  0  0  0  3  0  0  0  0  0  0
  -27.5580  -37.2580   24.6890 C   0  0  0  0  0  1  0  0  0  0  0  0
  -26.4420  -37.4270   23.7610 N   0  0  0  0  0  0  0  0  0  0  0  0
  -26.0370  -38.3490   23.9150 H   0  0  0  0  0  0  0  0  0  0  0  0
  -26.3930  -31.7660   25.1490 C   0  0  1  0  0  0  0  0  0  0  0  0
  -25.3140  -31.5320   26.2320 C   0  0  0  0  0  1  0  0  0  0  0  0
  -26.9690  -30.3870   24.7530 C   0  0  0  0  0  1  0  0  0  0  0  0
  -27.5500  -32.5650   25.7950 C   0  0  0  0  0  1  0  0  0  0  0  0
  1  3  1  0
  2  1  1  0
  4  1  1  0
  5  8  1  0
  5  7  1  0
  7 10  1  0
  7  6  1  0
  8  4  1  0
  8  9  1  0
  9  6  1  0
 10 11  1  0
 12 11  1  0
 13 18  1  0
 14 15  1  0
 14 13  1  0
 16 15  1  0
 16 23  1  0
 16 17  1  0
 18 12  1  0
 18 17  1  0
 19 12  2  0
 20 21  2  0
 21 40  1  0
 22 21  1  0
 22 25  1  0
 23 20  1  0
 23 24  1  0
 24 22  2  0
 25 26  1  0
 26 27  2  0
 28 31  1  0
 28 27  1  0
 29 28  2  0
 30 29  1  0
 30 25  2  0
 31 32  1  0
 32 33  1  0
 33 34  2  0
 35 34  1  0
 35 39  1  0
 36 35  2  0
 37 32  2  0
 37 36  1  0
 38 37  1  0
 40 41  1  0
 41 44  1  0
 41 43  1  0
 42 40  2  0
 45 46  1  0
 45 20  1  0
 47 45  1  0
 48  1  1  0
 49 50  1  0
 49 48  1  0
 51 53  1  0
 51 50  1  0
 52 63  2  0
 53 58  1  0
 54 62  1  0
 54 64  1  0
 55 61  1  0
 55 57  1  0
 56 62  1  0
 57 56  1  0
 58 57  2  0
 59 60  1  0
 59 53  2  0
 60 55  2  0
 61 54  1  0
 62 52  1  0
 64 66  2  0
 65 64  1  0
 67 65  1  0
 68 77  2  0
 68 73  1  0
 69 65  1  0
 69 73  1  0
 70 69  1  0
 71 72  1  0
 71 70  1  0
 72 68  1  0
 73 74  2  0
 74 75  1  0
 76 75  2  0
 77 76  1  0
 78 52  1  0
 78 79  1  0
 78 88  1  0
 79 82  1  0
 80 84  1  0
 80 79  1  0
 81 80  2  0
 84 83  1  0
 86 84  1  0
 86 87  1  0
 86 85  1  0
 88 91  1  1
 88 89  1  0
 90 88  1  0
M  ISO  4  11 100  12 100  50 101  51 101
M  END
>  <TORSDO>  (47) 
F 22

>  <SCORE>  (47) 
-13.044

>  <name>  (47) 
46

>  <ligand_id>  (47) 
46

>  <original_smiles>  (47) 
[H]C(C(=O)N1C([H])([H])C([H])([H])C([H])([H])C([H])(n2nc(-c3c([H])c([H])c(Oc4c([H])c([H])c(F)c([H])c4F)c([H])c3[H])c(C(=O)N([H])[H])c2N([H])[H])C1([H])[H])=C([H])c1c([H])sc(C([H])([H])[N+]([H])([H])C([H])([H])C([H])([H])C([H])([H])Oc2c([H])c([H])c3c(c2[H])C([H])([H])N(C(=O)C([H])(N([H])C(=O)C([H])(N([H])C([H])([H])[H])C([H])([H])[H])C(C([H])([H])[H])(C([H])([H])[H])C([H])([H])[H])C([H])(C(=O)N([H])C2([H])c4c([H])c([H])c([H])c([H])c4C([H])([H])C([H])([H])C2([H])[H])C3([H])[H])c1[H]

>  <smiles>  (47) 
[H]C(C(=O)N1C([H])([H])C([H])([H])C([H])([H])C([H])(n2nc(-c3c([H])c([H])c(Oc4c([H])c([H])c(F)c([H])c4F)c([H])c3[H])c(C(=O)N([H])[H])c2N([H])[H])C1([H])[H])=C([H])c1c([H])sc(C([H])([H])[N+]([H])([H])C([H])([H])C([H])([H])C([H])([H])Oc2c([H])c([H])c3c(c2[H])C([H])([H])N(C(=O)C([H])(N([H])C(=O)C([H])(N([H])C([H])([H])[H])C([H])([H])[H])C(C([H])([H])[H])(C([H])([H])[H])C([H])([H])[H])C([H])(C(=O)N([H])C2([H])c4c([H])c([H])c([H])c([H])c4C([H])([H])C([H])([H])C2([H])[H])C3([H])[H])c1[H]

$$$$
47:0:0
     RDKit          3D

 91100  0  0  1  0  0  0  0  0999 V2000
  -29.9850  -22.3280   22.2350 C   0  0  0  0  0  3  0  0  0  0  0  0
  -29.8760  -20.9550   21.9050 C   0  0  0  0  0  3  0  0  0  0  0  0
  -28.5630  -21.5170   19.9180 C   0  0  0  0  0  3  0  0  0  0  0  0
  -29.3670  -23.2810   21.4040 C   0  0  0  0  0  0  0  0  0  0  0  0
  -28.6770  -22.8920   20.2640 C   0  0  0  0  0  0  0  0  0  0  0  0
  -29.1610  -20.5260   20.7570 C   0  0  0  0  0  0  0  0  0  0  0  0
  -29.2960  -24.7830   21.6140 C   0  0  0  0  0  2  0  0  0  0  0  0
  -28.0780  -24.1160   19.5750 C   0  0  0  0  0  2  0  0  0  0  0  0
  -28.1790  -25.2580   20.6440 C   0  0  0  0  0  3  0  0  0  0  0  0
  -28.3510  -26.6380   20.2000 O   0  0  0  0  0  0  0  0  0  0  0  0
  -24.5760  -31.9140   23.2370 C   0  0  0  0  0  0  0  0  0  0  0  0
  -27.2080  -27.4240   20.1740 C   0  0  0  0  0  0  0  0  0  0  0  0
  -23.3710  -30.5040   21.6060 C   0  0  0  0  0  3  0  0  0  0  0  0
  -24.8230  -28.9630   20.1780 C   0  0  0  0  0  0  0  0  0  0  0  0
  -25.9020  -30.8500   21.4090 C   0  0  0  0  0  2  0  0  0  0  0  0
  -25.9870  -29.4790   20.7650 C   0  0  0  0  0  0  0  0  0  0  0  0
  -27.1860  -28.7200   20.7510 C   0  0  0  0  0  3  0  0  0  0  0  0
  -26.0280  -26.9380   19.5720 C   0  0  0  0  0  3  0  0  0  0  0  0
  -24.8420  -27.6950   19.5760 C   0  0  0  0  0  3  0  0  0  0  0  0
  -23.5810  -29.8250   20.2260 C   0  0  0  0  0  2  0  0  0  0  0  0
  -24.6360  -31.1010   22.1440 N   0  0  0  0  0  0  0  0  0  0  0  0
  -23.4890  -32.2110   23.7520 O   0  0  0  0  0  0  0  0  0  0  0  0
  -22.7190  -29.4830   22.5680 C   0  0  0  0  0  0  0  0  0  0  0  0
  -21.3940  -29.3040   22.4450 N   0  0  0  0  0  0  0  0  0  0  0  0
  -23.4040  -28.8550   23.3810 O   0  0  0  0  0  0  0  0  0  0  0  0
  -20.9010  -29.8610   21.7610 H   0  0  0  0  0  0  0  0  0  0  0  0
  -18.0180  -28.1160   22.9550 C   0  0  0  0  0  0  0  0  0  0  0  0
  -20.5770  -28.3650   23.2160 C   0  0  0  0  0  3  0  0  0  0  0  0
  -20.6720  -26.9370   22.6330 C   0  0  0  0  0  2  0  0  0  0  0  0
  -19.5650  -26.6220   21.6220 C   0  0  0  0  0  2  0  0  0  0  0  0
  -18.1860  -26.7690   22.2730 C   0  0  0  0  0  2  0  0  0  0  0  0
  -19.1410  -28.8720   23.3830 C   0  0  0  0  0  0  0  0  0  0  0  0
  -18.9280  -30.1350   23.9790 C   0  0  0  0  0  3  0  0  0  0  0  0
  -17.6260  -30.6410   24.1530 C   0  0  0  0  0  3  0  0  0  0  0  0
  -16.5170  -29.8810   23.7410 C   0  0  0  0  0  3  0  0  0  0  0  0
  -16.7140  -28.6200   23.1480 C   0  0  0  0  0  3  0  0  0  0  0  0
  -25.8610  -32.5360   23.8660 C   0  0  0  0  0  3  0  0  0  0  0  0
  -26.3750  -31.7640   25.1440 C   0  0  1  0  0  0  0  0  0  0  0  0
  -25.2800  -31.5270   26.2080 C   0  0  0  0  0  1  0  0  0  0  0  0
  -26.9600  -30.3860   24.7510 C   0  0  0  0  0  1  0  0  0  0  0  0
  -27.5260  -32.5570   25.8080 C   0  0  0  0  0  1  0  0  0  0  0  0
  -25.5570  -33.9350   24.1960 N   0  0  0  0  0  0  0  0  0  0  0  0
  -25.8850  -34.9850   23.4320 C   0  0  0  0  0  0  0  0  0  0  0  0
  -26.5480  -34.8770   22.3970 O   0  0  0  0  0  0  0  0  0  0  0  0
  -24.9650  -34.0910   24.9990 H   0  0  0  0  0  0  0  0  0  0  0  0
  -24.1480  -36.7700   23.0840 C   0  0  0  0  0  1  0  0  0  0  0  0
  -25.3980  -36.3730   23.8860 C   0  0  0  0  0  3  0  0  0  0  0  0
  -27.5380  -37.2650   24.6950 C   0  0  0  0  0  1  0  0  0  0  0  0
  -26.4280  -37.4280   23.7600 N   0  0  0  0  0  0  0  0  0  0  0  0
  -26.0210  -38.3480   23.9070 H   0  0  0  0  0  0  0  0  0  0  0  0
  -28.9580  -19.0090   20.5120 C   0  0  0  0  0  2  0  0  0  0  0  0
  -30.2420  -18.1270   20.3450 C   0  0  0  0  0  2  0  0  0  0  0  0
  -30.4690  -16.9620   21.3710 C   0  0  0  0  0  2  0  0  0  0  0  0
  -30.6920  -14.5780   20.5010 C   0  0  0  0  0  0  0  0  0  0  0  0
  -30.4310  -12.3930   19.3660 C   0  0  0  0  0  2  0  0  0  0  0  0
  -29.5070  -12.5620   18.1410 C   0  0  0  0  0  2  0  0  0  0  0  0
  -28.0270  -12.4260   18.5490 C   0  0  0  0  0  2  0  0  0  0  0  0
  -27.6650  -13.2810   19.7930 C   0  0  0  0  0  3  0  0  0  0  0  0
  -28.7010  -13.0830   20.9200 C   0  0  0  0  0  2  0  0  0  0  0  0
  -30.0270  -13.3960   20.3660 N   0  0  0  0  0  0  0  0  0  0  0  0
  -31.8420  -14.7420   20.0860 O   0  0  0  0  0  0  0  0  0  0  0  0
  -29.9730  -15.6130   21.0010 N   0  0  0  0  0  0  0  0  0  0  0  0
  -29.0220  -15.3960   21.2610 H   0  0  0  0  0  0  0  0  0  0  0  0
  -25.2580  -13.8990   20.4550 C   0  0  0  0  0  0  0  0  0  0  0  0
  -24.1820  -13.1340   20.8160 C   0  0  0  0  0  0  0  0  0  0  0  0
  -24.6410  -11.7810   20.8100 C   0  0  0  0  0  0  0  0  0  0  0  0
  -26.3050  -13.0130   20.2530 N   0  0  0  0  0  0  0  0  0  0  0  0
  -25.9360  -11.7350   20.5260 N   0  0  0  0  0  0  0  0  0  0  0  0
  -23.9080  -10.5230   21.0020 C   0  0  0  0  0  0  0  0  0  0  0  0
  -24.3260   -9.5630   21.9510 C   0  0  0  0  0  3  0  0  0  0  0  0
  -23.5950   -8.3690   22.1300 C   0  0  0  0  0  3  0  0  0  0  0  0
  -22.4320   -8.1270   21.3610 C   0  0  0  0  0  0  0  0  0  0  0  0
  -22.0330   -9.0750   20.4020 C   0  0  0  0  0  3  0  0  0  0  0  0
  -22.7660  -10.2600   20.2210 C   0  0  0  0  0  3  0  0  0  0  0  0
  -21.6740   -6.9850   21.4490 O   0  0  0  0  0  0  0  0  0  0  0  0
  -21.6090   -6.2510   22.6060 C   0  0  0  0  0  0  0  0  0  0  0  0
  -21.1760   -6.8160   23.8240 C   0  0  0  0  0  3  0  0  0  0  0  0
  -21.0590   -6.0080   24.9730 C   0  0  0  0  0  3  0  0  0  0  0  0
  -21.3650   -4.6360   24.9040 C   0  0  0  0  0  0  0  0  0  0  0  0
  -21.7910   -4.0690   23.6900 C   0  0  0  0  0  3  0  0  0  0  0  0
  -21.9100   -4.8740   22.5440 C   0  0  0  0  0  0  0  0  0  0  0  0
  -22.3010   -4.3200   21.3710 F   0  0  0  0  0  0  0  0  0  0  0  0
  -21.2450   -3.8580   26.0050 F   0  0  0  0  0  0  0  0  0  0  0  0
  -22.7810  -13.6180   21.0560 C   0  0  0  0  0  0  0  0  0  0  0  0
  -22.0350  -12.9330   21.9160 N   0  0  0  0  0  0  0  0  0  0  0  0
  -22.3550  -14.6380   20.5170 O   0  0  0  0  0  0  0  0  0  0  0  0
  -22.3910  -12.1080   22.3750 H   0  0  0  0  0  0  0  0  0  0  0  0
  -21.0940  -13.2380   22.1190 H   0  0  0  0  0  0  0  0  0  0  0  0
  -25.4310  -15.2670   20.2630 N   0  0  0  0  0  0  0  0  0  0  0  0
  -24.6640  -15.9260   20.3430 H   0  0  0  0  0  0  0  0  0  0  0  0
  -26.2840  -15.6950   19.9280 H   0  0  0  0  0  0  0  0  0  0  0  0
  2  1  1  0
  3  5  2  0
  3  6  1  0
  4  7  1  0
  4  1  2  0
  5  4  1  0
  6  2  2  0
  8  5  1  0
  8  9  1  0
  9 10  1  0
  9  7  1  0
 11 22  2  0
 12 10  1  0
 12 17  1  0
 13 21  1  0
 13 23  1  0
 14 20  1  0
 14 16  1  0
 15 21  1  0
 16 15  1  0
 17 16  2  0
 18 19  1  0
 18 12  2  0
 19 14  2  0
 20 13  1  0
 21 11  1  0
 23 25  2  0
 24 23  1  0
 26 24  1  0
 27 36  2  0
 27 32  1  0
 28 24  1  0
 28 32  1  0
 29 28  1  0
 30 31  1  0
 30 29  1  0
 31 27  1  0
 32 33  2  0
 33 34  1  0
 35 34  2  0
 36 35  1  0
 37 11  1  0
 37 42  1  0
 37 38  1  0
 38 41  1  1
 38 39  1  0
 40 38  1  0
 42 45  1  0
 43 47  1  0
 43 42  1  0
 44 43  2  0
 47 46  1  0
 49 47  1  0
 49 50  1  0
 49 48  1  0
 51  6  1  0
 52 51  1  0
 52 53  1  0
 54 62  1  0
 55 60  1  0
 56 57  1  0
 56 55  1  0
 58 57  1  0
 58 67  1  0
 58 59  1  0
 60 54  1  0
 60 59  1  0
 61 54  2  0
 62 63  1  0
 62 53  1  0
 64 65  2  0
 65 84  1  0
 66 65  1  0
 66 69  1  0
 67 64  1  0
 67 68  1  0
 68 66  2  0
 69 70  1  0
 70 71  2  0
 72 75  1  0
 72 71  1  0
 73 72  2  0
 74 73  1  0
 74 69  2  0
 75 76  1  0
 76 77  1  0
 77 78  2  0
 79 78  1  0
 79 83  1  0
 80 79  2  0
 81 76  2  0
 81 80  1  0
 82 81  1  0
 84 85  1  0
 85 88  1  0
 85 87  1  0
 86 84  2  0
 89 90  1  0
 89 64  1  0
 91 89  1  0
M  ISO  4   9 101  10 101  54 100  62 100
M  END
>  <TORSDO>  (48) 
F 19

>  <SCORE>  (48) 
-14.464

>  <name>  (48) 
47

>  <ligand_id>  (48) 
47

>  <original_smiles>  (48) 
[H]c1c([H])c([H])c2c(c1[H])C([H])([H])C([H])([H])C([H])([H])C2([H])N([H])C(=O)C1([H])N(C(=O)C([H])(N([H])C(=O)C([H])(N([H])C([H])([H])[H])C([H])([H])[H])C(C([H])([H])[H])(C([H])([H])[H])C([H])([H])[H])C([H])([H])c2c([H])c(OC3([H])C([H])([H])c4c([H])c([H])c(C([H])([H])C([H])([H])C([H])([H])N([H])C(=O)N5C([H])([H])C([H])([H])C([H])([H])C([H])(n6nc(-c7c([H])c([H])c(Oc8c([H])c([H])c(F)c([H])c8F)c([H])c7[H])c(C(=O)N([H])[H])c6N([H])[H])C5([H])[H])c([H])c4C3([H])[H])c([H])c([H])c2C1([H])[H]

>  <smiles>  (48) 
[H]c1c([H])c([H])c2c(c1[H])C([H])([H])C([H])([H])C([H])([H])C2([H])N([H])C(=O)C1([H])N(C(=O)C([H])(N([H])C(=O)C([H])(N([H])C([H])([H])[H])C([H])([H])[H])C(C([H])([H])[H])(C([H])([H])[H])C([H])([H])[H])C([H])([H])c2c([H])c(OC3([H])C([H])([H])c4c([H])c([H])c(C([H])([H])C([H])([H])C([H])([H])N([H])C(=O)N5C([H])([H])C([H])([H])C([H])([H])C([H])(n6nc(-c7c([H])c([H])c(Oc8c([H])c([H])c(F)c([H])c8F)c([H])c7[H])c(C(=O)N([H])[H])c6N([H])[H])C5([H])[H])c([H])c4C3([H])[H])c([H])c([H])c2C1([H])[H]

$$$$
48:0:0
     RDKit          3D

 91 99  0  0  1  0  0  0  0  0999 V2000
  -28.1850  -22.5400   17.6060 C   0  0  0  0  0  3  0  0  0  0  0  0
  -28.4230  -21.5230   18.5470 C   0  0  0  0  0  3  0  0  0  0  0  0
  -28.7400  -23.8160   17.7910 C   0  0  0  0  0  3  0  0  0  0  0  0
  -29.7710  -23.0600   19.8710 C   0  0  0  0  0  3  0  0  0  0  0  0
  -29.2350  -21.7600   19.6820 C   0  0  0  0  0  0  0  0  0  0  0  0
  -29.5260  -24.0910   18.9290 C   0  0  0  0  0  0  0  0  0  0  0  0
  -29.5570  -20.6380   20.6810 C   0  0  0  0  0  2  0  0  0  0  0  0
  -29.4130  -19.2110   20.0930 C   0  0  0  0  0  2  0  0  0  0  0  0
  -29.8430  -18.0190   20.9840 C   0  0  0  0  0  2  0  0  0  0  0  0
  -29.7880  -16.7170   20.1530 C   0  0  0  0  0  2  0  0  0  0  0  0
  -30.6390  -14.4270   20.4560 C   0  0  0  0  0  0  0  0  0  0  0  0
  -30.3350  -12.2700   19.3220 C   0  0  0  0  0  2  0  0  0  0  0  0
  -29.3950  -12.5080   18.1200 C   0  0  0  0  0  2  0  0  0  0  0  0
  -27.9200  -12.3750   18.5470 C   0  0  0  0  0  2  0  0  0  0  0  0
  -27.5930  -13.2010   19.8220 C   0  0  0  0  0  3  0  0  0  0  0  0
  -28.6490  -12.9540   20.9290 C   0  0  0  0  0  2  0  0  0  0  0  0
  -29.9810  -13.2410   20.3680 N   0  0  0  0  0  0  0  0  0  0  0  0
  -31.7480  -14.6230   19.9520 O   0  0  0  0  0  0  0  0  0  0  0  0
  -29.8910  -15.4530   20.8960 N   0  0  0  0  0  0  0  0  0  0  0  0
  -29.0590  -15.1770   21.3960 H   0  0  0  0  0  0  0  0  0  0  0  0
  -25.1950  -13.8240   20.5280 C   0  0  0  0  0  0  0  0  0  0  0  0
  -24.1240  -13.0580   20.9020 C   0  0  0  0  0  0  0  0  0  0  0  0
  -24.5770  -11.7040   20.8760 C   0  0  0  0  0  0  0  0  0  0  0  0
  -26.2370  -12.9360   20.2990 N   0  0  0  0  0  0  0  0  0  0  0  0
  -25.8680  -11.6560   20.5630 N   0  0  0  0  0  0  0  0  0  0  0  0
  -23.8480  -10.4440   21.0750 C   0  0  0  0  0  0  0  0  0  0  0  0
  -24.2910   -9.4690   21.9960 C   0  0  0  0  0  3  0  0  0  0  0  0
  -23.5610   -8.2760   22.1800 C   0  0  0  0  0  3  0  0  0  0  0  0
  -22.3740   -8.0490   21.4440 C   0  0  0  0  0  0  0  0  0  0  0  0
  -21.9480   -9.0130   20.5130 C   0  0  0  0  0  3  0  0  0  0  0  0
  -22.6790  -10.1980   20.3270 C   0  0  0  0  0  3  0  0  0  0  0  0
  -21.6160   -6.9060   21.5400 O   0  0  0  0  0  0  0  0  0  0  0  0
  -21.5960   -6.1470   22.6800 C   0  0  0  0  0  0  0  0  0  0  0  0
  -21.2230   -6.6890   23.9300 C   0  0  0  0  0  3  0  0  0  0  0  0
  -21.1520   -5.8560   25.0650 C   0  0  0  0  0  3  0  0  0  0  0  0
  -21.4430   -4.4830   24.9520 C   0  0  0  0  0  0  0  0  0  0  0  0
  -21.8090   -3.9410   23.7080 C   0  0  0  0  0  3  0  0  0  0  0  0
  -21.8820   -4.7700   22.5740 C   0  0  0  0  0  0  0  0  0  0  0  0
  -22.2170   -4.2390   21.3740 F   0  0  0  0  0  0  0  0  0  0  0  0
  -21.3650   -3.6810   26.0400 F   0  0  0  0  0  0  0  0  0  0  0  0
  -22.7290  -13.5460   21.1770 C   0  0  0  0  0  0  0  0  0  0  0  0
  -21.9990  -12.8590   22.0490 N   0  0  0  0  0  0  0  0  0  0  0  0
  -22.2960  -14.5700   20.6520 O   0  0  0  0  0  0  0  0  0  0  0  0
  -22.3640  -12.0300   22.4960 H   0  0  0  0  0  0  0  0  0  0  0  0
  -21.0650  -13.1700   22.2750 H   0  0  0  0  0  0  0  0  0  0  0  0
  -25.3670  -15.1920   20.3470 N   0  0  0  0  0  0  0  0  0  0  0  0
  -24.5990  -15.8480   20.4600 H   0  0  0  0  0  0  0  0  0  0  0  0
  -26.2170  -15.6240   20.0080 H   0  0  0  0  0  0  0  0  0  0  0  0
  -30.1600  -25.4710   19.0800 C   0  0  0  0  0  2  0  0  0  0  0  0
  -29.1690  -26.6540   19.0210 C   0  0  0  0  0  2  0  0  0  0  0  0
  -28.4030  -26.6990   20.2130 O   0  0  0  0  0  0  0  0  0  0  0  0
  -24.6030  -31.8800   23.2290 C   0  0  0  0  0  0  0  0  0  0  0  0
  -27.2570  -27.4490   20.1600 C   0  0  0  0  0  0  0  0  0  0  0  0
  -23.3950  -30.4640   21.5990 C   0  0  0  0  0  3  0  0  0  0  0  0
  -24.8520  -28.9270   20.1690 C   0  0  0  0  0  0  0  0  0  0  0  0
  -25.9170  -30.8290   21.3960 C   0  0  0  0  0  2  0  0  0  0  0  0
  -26.0040  -29.4590   20.7610 C   0  0  0  0  0  0  0  0  0  0  0  0
  -27.2080  -28.7220   20.7640 C   0  0  0  0  0  3  0  0  0  0  0  0
  -26.0910  -26.9190   19.5690 C   0  0  0  0  0  3  0  0  0  0  0  0
  -24.8880  -27.6530   19.5720 C   0  0  0  0  0  3  0  0  0  0  0  0
  -23.6020  -29.7780   20.2210 C   0  0  0  0  0  2  0  0  0  0  0  0
  -24.6580  -31.0690   22.1350 N   0  0  0  0  0  0  0  0  0  0  0  0
  -23.5190  -32.1740   23.7510 O   0  0  0  0  0  0  0  0  0  0  0  0
  -22.7480  -29.4450   22.5630 C   0  0  0  0  0  0  0  0  0  0  0  0
  -21.4220  -29.2650   22.4410 N   0  0  0  0  0  0  0  0  0  0  0  0
  -23.4320  -28.8200   23.3780 O   0  0  0  0  0  0  0  0  0  0  0  0
  -20.9320  -29.8250   21.7560 H   0  0  0  0  0  0  0  0  0  0  0  0
  -18.0460  -28.0830   22.9480 C   0  0  0  0  0  0  0  0  0  0  0  0
  -20.6050  -28.3310   23.2140 C   0  0  0  0  0  3  0  0  0  0  0  0
  -20.7000  -26.9000   22.6350 C   0  0  0  0  0  2  0  0  0  0  0  0
  -19.5940  -26.5820   21.6230 C   0  0  0  0  0  2  0  0  0  0  0  0
  -18.2150  -26.7320   22.2720 C   0  0  0  0  0  2  0  0  0  0  0  0
  -19.1690  -28.8400   23.3750 C   0  0  0  0  0  0  0  0  0  0  0  0
  -18.9570  -30.1040   23.9650 C   0  0  0  0  0  3  0  0  0  0  0  0
  -17.6550  -30.6110   24.1340 C   0  0  0  0  0  3  0  0  0  0  0  0
  -16.5460  -29.8500   23.7230 C   0  0  0  0  0  3  0  0  0  0  0  0
  -16.7430  -28.5880   23.1360 C   0  0  0  0  0  3  0  0  0  0  0  0
  -25.8930  -32.5020   23.8540 C   0  0  0  0  0  3  0  0  0  0  0  0
  -25.5890  -33.8970   24.1920 N   0  0  0  0  0  0  0  0  0  0  0  0
  -25.9160  -34.9510   23.4320 C   0  0  0  0  0  0  0  0  0  0  0  0
  -26.5790  -34.8510   22.3970 O   0  0  0  0  0  0  0  0  0  0  0  0
  -24.9990  -34.0480   24.9970 H   0  0  0  0  0  0  0  0  0  0  0  0
  -24.1810  -36.7390   23.0900 C   0  0  0  0  0  1  0  0  0  0  0  0
  -25.4270  -36.3370   23.8950 C   0  0  0  0  0  3  0  0  0  0  0  0
  -27.5660  -37.2210   24.7130 C   0  0  0  0  0  1  0  0  0  0  0  0
  -26.4580  -37.3920   23.7770 N   0  0  0  0  0  0  0  0  0  0  0  0
  -26.0520  -38.3110   23.9310 H   0  0  0  0  0  0  0  0  0  0  0  0
  -26.4180  -31.7220   25.1220 C   0  0  1  0  0  0  0  0  0  0  0  0
  -25.3320  -31.4800   26.1950 C   0  0  0  0  0  1  0  0  0  0  0  0
  -26.9980  -30.3470   24.7160 C   0  0  0  0  0  1  0  0  0  0  0  0
  -27.5750  -32.5100   25.7810 C   0  0  0  0  0  1  0  0  0  0  0  0
  1  3  2  0
  1  2  1  0
  2  5  2  0
  3  6  1  0
  5  4  1  0
  5  7  1  0
  6 49  1  0
  6  4  2  0
  8  7  1  0
  8  9  1  0
 10 19  1  0
 10  9  1  0
 11 19  1  0
 12 17  1  0
 13 14  1  0
 13 12  1  0
 15 14  1  0
 15 24  1  0
 15 16  1  0
 17 11  1  0
 17 16  1  0
 18 11  2  0
 19 20  1  0
 21 22  2  0
 22 41  1  0
 23 22  1  0
 23 26  1  0
 24 21  1  0
 24 25  1  0
 25 23  2  0
 26 27  1  0
 27 28  2  0
 29 32  1  0
 29 28  1  0
 30 29  2  0
 31 30  1  0
 31 26  2  0
 32 33  1  0
 33 34  1  0
 34 35  2  0
 36 35  1  0
 36 40  1  0
 37 36  2  0
 38 33  2  0
 38 37  1  0
 39 38  1  0
 41 42  1  0
 42 45  1  0
 42 44  1  0
 43 41  2  0
 46 47  1  0
 46 21  1  0
 48 46  1  0
 50 49  1  0
 50 51  1  0
 52 63  2  0
 53 51  1  0
 53 58  1  0
 54 62  1  0
 54 64  1  0
 55 61  1  0
 55 57  1  0
 56 62  1  0
 57 58  2  0
 57 56  1  0
 59 60  1  0
 59 53  2  0
 60 55  2  0
 61 54  1  0
 62 52  1  0
 64 66  2  0
 65 64  1  0
 67 65  1  0
 68 77  2  0
 68 73  1  0
 69 65  1  0
 69 73  1  0
 70 69  1  0
 71 72  1  0
 71 70  1  0
 72 68  1  0
 73 74  2  0
 74 75  1  0
 76 75  2  0
 77 76  1  0
 78 52  1  0
 78 79  1  0
 78 88  1  0
 79 82  1  0
 80 84  1  0
 80 79  1  0
 81 80  2  0
 84 83  1  0
 86 84  1  0
 86 87  1  0
 86 85  1  0
 88 91  1  1
 88 89  1  0
 90 88  1  0
M  ISO  4  11 100  19 100  50 101  51 101
M  END
>  <TORSDO>  (49) 
F 22

>  <SCORE>  (49) 
-12.981

>  <name>  (49) 
48

>  <ligand_id>  (49) 
48

>  <original_smiles>  (49) 
[H]c1c([H])c(C([H])([H])C([H])([H])Oc2c([H])c([H])c3c(c2[H])C([H])([H])N(C(=O)C([H])(N([H])C(=O)C([H])(N([H])C([H])([H])[H])C([H])([H])[H])C(C([H])([H])[H])(C([H])([H])[H])C([H])([H])[H])C([H])(C(=O)N([H])C2([H])c4c([H])c([H])c([H])c([H])c4C([H])([H])C([H])([H])C2([H])[H])C3([H])[H])c([H])c(C([H])([H])C([H])([H])C([H])([H])C([H])([H])N([H])C(=O)N2C([H])([H])C([H])([H])C([H])([H])C([H])(n3nc(-c4c([H])c([H])c(Oc5c([H])c([H])c(F)c([H])c5F)c([H])c4[H])c(C(=O)N([H])[H])c3N([H])[H])C2([H])[H])c1[H]

>  <smiles>  (49) 
[H]c1c([H])c(C([H])([H])C([H])([H])Oc2c([H])c([H])c3c(c2[H])C([H])([H])N(C(=O)C([H])(N([H])C(=O)C([H])(N([H])C([H])([H])[H])C([H])([H])[H])C(C([H])([H])[H])(C([H])([H])[H])C([H])([H])[H])C([H])(C(=O)N([H])C2([H])c4c([H])c([H])c([H])c([H])c4C([H])([H])C([H])([H])C2([H])[H])C3([H])[H])c([H])c(C([H])([H])C([H])([H])C([H])([H])C([H])([H])N([H])C(=O)N2C([H])([H])C([H])([H])C([H])([H])C([H])(n3nc(-c4c([H])c([H])c(Oc5c([H])c([H])c(F)c([H])c5F)c([H])c4[H])c(C(=O)N([H])[H])c3N([H])[H])C2([H])[H])c1[H]

$$$$
49:0:0
     RDKit          3D

 95104  0  0  1  0  0  0  0  0999 V2000
  -28.6000  -25.1900   18.4060 C   0  0  0  0  0  3  0  0  0  0  0  0
  -29.5050  -23.4020   20.3790 C   0  0  0  0  0  3  0  0  0  0  0  0
  -29.0300  -23.8990   18.0310 C   0  0  0  0  0  0  0  0  0  0  0  0
  -29.5330  -23.0180   19.0220 C   0  0  0  0  0  0  0  0  0  0  0  0
  -28.6340  -25.5890   19.7570 C   0  0  0  0  0  0  0  0  0  0  0  0
  -29.0560  -24.6820   20.7460 C   0  0  0  0  0  0  0  0  0  0  0  0
  -28.9790  -23.5150   16.5630 C   0  0  0  0  0  1  0  0  0  0  0  0
  -29.0960  -25.0640   22.0470 F   0  0  0  0  0  0  0  0  0  0  0  0
  -28.4340  -26.8940   20.1080 O   0  0  0  0  0  0  0  0  0  0  0  0
  -24.5570  -31.9030   23.2410 C   0  0  0  0  0  0  0  0  0  0  0  0
  -27.2020  -27.4990   20.1340 C   0  0  0  0  0  0  0  0  0  0  0  0
  -23.3390  -30.4860   21.6160 C   0  0  0  0  0  3  0  0  0  0  0  0
  -24.7830  -28.9500   20.1800 C   0  0  0  0  0  0  0  0  0  0  0  0
  -25.8540  -30.8640   21.3910 C   0  0  0  0  0  2  0  0  0  0  0  0
  -25.9370  -29.4940   20.7570 C   0  0  0  0  0  0  0  0  0  0  0  0
  -27.1430  -28.7700   20.7370 C   0  0  0  0  0  3  0  0  0  0  0  0
  -26.0300  -26.9470   19.5670 C   0  0  0  0  0  3  0  0  0  0  0  0
  -24.8210  -27.6730   19.5890 C   0  0  0  0  0  3  0  0  0  0  0  0
  -23.5350  -29.7980   20.2370 C   0  0  0  0  0  2  0  0  0  0  0  0
  -24.6020  -31.0970   22.1440 N   0  0  0  0  0  0  0  0  0  0  0  0
  -23.4760  -32.1960   23.7720 O   0  0  0  0  0  0  0  0  0  0  0  0
  -22.7050  -29.4640   22.5850 C   0  0  0  0  0  0  0  0  0  0  0  0
  -21.3820  -29.2650   22.4590 N   0  0  0  0  0  0  0  0  0  0  0  0
  -23.3970  -28.8490   23.4010 O   0  0  0  0  0  0  0  0  0  0  0  0
  -20.8860  -29.8120   21.7700 H   0  0  0  0  0  0  0  0  0  0  0  0
  -18.0250  -28.0320   22.9480 C   0  0  0  0  0  0  0  0  0  0  0  0
  -20.5770  -28.3220   23.2330 C   0  0  0  0  0  3  0  0  0  0  0  0
  -20.7010  -26.8900   22.6630 C   0  0  0  0  0  2  0  0  0  0  0  0
  -19.6080  -26.5490   21.6460 C   0  0  0  0  0  2  0  0  0  0  0  0
  -18.2220  -26.6800   22.2830 C   0  0  0  0  0  2  0  0  0  0  0  0
  -19.1310  -28.8110   23.3800 C   0  0  0  0  0  0  0  0  0  0  0  0
  -18.8940  -30.0750   23.9590 C   0  0  0  0  0  3  0  0  0  0  0  0
  -17.5830  -30.5630   24.1120 C   0  0  0  0  0  3  0  0  0  0  0  0
  -16.4900  -29.7810   23.6990 C   0  0  0  0  0  3  0  0  0  0  0  0
  -16.7120  -28.5170   23.1230 C   0  0  0  0  0  3  0  0  0  0  0  0
  -25.8520  -32.5250   23.8570 C   0  0  0  0  0  3  0  0  0  0  0  0
  -26.3850  -31.7480   25.1230 C   0  0  1  0  0  0  0  0  0  0  0  0
  -25.3060  -31.5080   26.2020 C   0  0  0  0  0  1  0  0  0  0  0  0
  -26.9610  -30.3710   24.7150 C   0  0  0  0  0  1  0  0  0  0  0  0
  -27.5470  -32.5380   25.7720 C   0  0  0  0  0  1  0  0  0  0  0  0
  -25.5500  -33.9220   24.1940 N   0  0  0  0  0  0  0  0  0  0  0  0
  -25.8750  -34.9730   23.4320 C   0  0  0  0  0  0  0  0  0  0  0  0
  -26.5350  -34.8700   22.3930 O   0  0  0  0  0  0  0  0  0  0  0  0
  -24.9640  -34.0760   25.0020 H   0  0  0  0  0  0  0  0  0  0  0  0
  -24.1400  -36.7610   23.0910 C   0  0  0  0  0  1  0  0  0  0  0  0
  -25.3880  -36.3600   23.8940 C   0  0  0  0  0  3  0  0  0  0  0  0
  -27.5300  -37.2450   24.7060 C   0  0  0  0  0  1  0  0  0  0  0  0
  -26.4200  -37.4140   23.7730 N   0  0  0  0  0  0  0  0  0  0  0  0
  -26.0140  -38.3330   23.9260 H   0  0  0  0  0  0  0  0  0  0  0  0
  -30.1970  -21.7000   18.6610 C   0  0  0  0  0  2  0  0  0  0  0  0
  -29.2830  -20.4710   18.8000 C   0  0  0  0  0  2  0  0  0  0  0  0
  -28.8570  -18.0950   17.9070 C   0  0  0  0  0  2  0  0  0  0  0  0
  -31.1810  -18.6980   18.8160 C   0  0  0  0  0  2  0  0  0  0  0  0
  -28.6400  -17.2140   19.1490 C   0  0  0  0  0  2  0  0  0  0  0  0
  -30.9070  -17.8030   20.0430 C   0  0  0  0  0  2  0  0  0  0  0  0
  -29.8920  -19.2230   18.1250 C   0  0  0  0  0  3  0  0  0  0  0  0
  -29.9930  -16.6460   19.6060 C   0  0  0  0  0  3  0  0  0  0  0  0
  -30.6540  -14.4720   20.5130 C   0  0  0  0  0  0  0  0  0  0  0  0
  -30.3550  -12.2920   19.4590 C   0  0  0  0  0  2  0  0  0  0  0  0
  -29.4440  -12.5160   18.2330 C   0  0  0  0  0  2  0  0  0  0  0  0
  -27.9600  -12.3960   18.6350 C   0  0  0  0  0  2  0  0  0  0  0  0
  -27.6050  -13.2470   19.8840 C   0  0  0  0  0  3  0  0  0  0  0  0
  -28.6430  -13.0470   21.0170 C   0  0  0  0  0  2  0  0  0  0  0  0
  -29.9840  -13.2950   20.4660 N   0  0  0  0  0  0  0  0  0  0  0  0
  -31.8310  -14.5990   20.1670 O   0  0  0  0  0  0  0  0  0  0  0  0
  -29.8530  -15.5480   20.5730 N   0  0  0  0  0  0  0  0  0  0  0  0
  -28.9210  -15.3720   20.9170 H   0  0  0  0  0  0  0  0  0  0  0  0
  -25.1970  -13.8780   20.5450 C   0  0  0  0  0  0  0  0  0  0  0  0
  -24.1190  -13.1140   20.9040 C   0  0  0  0  0  0  0  0  0  0  0  0
  -24.5750  -11.7600   20.8950 C   0  0  0  0  0  0  0  0  0  0  0  0
  -26.2420  -12.9890   20.3420 N   0  0  0  0  0  0  0  0  0  0  0  0
  -25.8700  -11.7120   20.6110 N   0  0  0  0  0  0  0  0  0  0  0  0
  -23.8410  -10.5020   21.0840 C   0  0  0  0  0  0  0  0  0  0  0  0
  -24.2670   -9.5310   22.0140 C   0  0  0  0  0  3  0  0  0  0  0  0
  -23.5350   -8.3370   22.1890 C   0  0  0  0  0  3  0  0  0  0  0  0
  -22.3600   -8.1080   21.4340 C   0  0  0  0  0  0  0  0  0  0  0  0
  -21.9520   -9.0690   20.4930 C   0  0  0  0  0  3  0  0  0  0  0  0
  -22.6860  -10.2530   20.3150 C   0  0  0  0  0  3  0  0  0  0  0  0
  -21.5990   -6.9670   21.5200 O   0  0  0  0  0  0  0  0  0  0  0  0
  -21.5640   -6.2090   22.6630 C   0  0  0  0  0  0  0  0  0  0  0  0
  -21.1730   -6.7530   23.9060 C   0  0  0  0  0  3  0  0  0  0  0  0
  -21.0830   -5.9220   25.0400 C   0  0  0  0  0  3  0  0  0  0  0  0
  -21.3770   -4.5490   24.9350 C   0  0  0  0  0  0  0  0  0  0  0  0
  -21.7620   -4.0050   23.6970 C   0  0  0  0  0  3  0  0  0  0  0  0
  -21.8520   -4.8330   22.5640 C   0  0  0  0  0  0  0  0  0  0  0  0
  -22.2030   -4.3010   21.3690 F   0  0  0  0  0  0  0  0  0  0  0  0
  -21.2840   -3.7500   26.0220 F   0  0  0  0  0  0  0  0  0  0  0  0
  -22.7190  -13.6000   21.1460 C   0  0  0  0  0  0  0  0  0  0  0  0
  -21.9710  -12.9170   22.0060 N   0  0  0  0  0  0  0  0  0  0  0  0
  -22.2940  -14.6220   20.6070 O   0  0  0  0  0  0  0  0  0  0  0  0
  -22.3270  -12.0930   22.4690 H   0  0  0  0  0  0  0  0  0  0  0  0
  -21.0320  -13.2280   22.2100 H   0  0  0  0  0  0  0  0  0  0  0  0
  -25.3710  -15.2470   20.3560 N   0  0  0  0  0  0  0  0  0  0  0  0
  -24.6030  -15.9030   20.4450 H   0  0  0  0  0  0  0  0  0  0  0  0
  -26.2230  -15.6800   20.0250 H   0  0  0  0  0  0  0  0  0  0  0  0
  1  5  1  0
  2  6  1  0
  3  1  2  0
  3  4  1  0
  4  2  2  0
  5  9  1  0
  5  6  2  0
  6  8  1  0
  7  3  1  0
  9 11  1  0
 10 21  2  0
 11 16  1  0
 12 20  1  0
 12 22  1  0
 13 19  1  0
 13 15  1  0
 14 20  1  0
 15 14  1  0
 16 15  2  0
 17 18  1  0
 17 11  2  0
 18 13  2  0
 19 12  1  0
 20 10  1  0
 22 24  2  0
 23 22  1  0
 25 23  1  0
 26 35  2  0
 26 31  1  0
 27 23  1  0
 27 31  1  0
 28 27  1  0
 29 30  1  0
 29 28  1  0
 30 26  1  0
 31 32  2  0
 32 33  1  0
 34 33  2  0
 35 34  1  0
 36 10  1  0
 36 41  1  0
 36 37  1  0
 37 40  1  1
 37 38  1  0
 39 37  1  0
 41 44  1  0
 42 46  1  0
 42 41  1  0
 43 42  2  0
 46 45  1  0
 48 46  1  0
 48 49  1  0
 48 47  1  0
 50 51  1  0
 50  4  1  0
 52 56  1  0
 52 54  1  0
 53 55  1  0
 54 57  1  0
 56 51  1  0
 56 53  1  0
 57 55  1  0
 57 66  1  0
 58 66  1  0
 59 64  1  0
 60 61  1  0
 60 59  1  0
 62 61  1  0
 62 71  1  0
 62 63  1  0
 64 58  1  0
 64 63  1  0
 65 58  2  0
 66 67  1  0
 68 69  2  0
 69 88  1  0
 70 69  1  0
 70 73  1  0
 71 68  1  0
 71 72  1  0
 72 70  2  0
 73 74  1  0
 74 75  2  0
 76 79  1  0
 76 75  1  0
 77 76  2  0
 78 77  1  0
 78 73  2  0
 79 80  1  0
 80 81  1  0
 81 82  2  0
 83 82  1  0
 83 87  1  0
 84 83  2  0
 85 80  2  0
 85 84  1  0
 86 85  1  0
 88 89  1  0
 89 92  1  0
 89 91  1  0
 90 88  2  0
 93 94  1  0
 93 68  1  0
 95 93  1  0
M  ISO  4   5 101   9 101  58 100  66 100
M  END
>  <TORSDO>  (50) 
F 19

>  <SCORE>  (50) 
-14.173

>  <name>  (50) 
49

>  <ligand_id>  (50) 
49

>  <original_smiles>  (50) 
[H]c1c([H])c([H])c2c(c1[H])C([H])([H])C([H])([H])C([H])([H])C2([H])N([H])C(=O)C1([H])N(C(=O)C([H])(N([H])C(=O)C([H])(N([H])C([H])([H])[H])C([H])([H])[H])C(C([H])([H])[H])(C([H])([H])[H])C([H])([H])[H])C([H])([H])c2c([H])c(Oc3c([H])c(C([H])([H])[H])c(C([H])([H])C([H])([H])C4([H])C([H])([H])C([H])([H])C([H])(N([H])C(=O)N5C([H])([H])C([H])([H])C([H])([H])C([H])(n6nc(-c7c([H])c([H])c(Oc8c([H])c([H])c(F)c([H])c8F)c([H])c7[H])c(C(=O)N([H])[H])c6N([H])[H])C5([H])[H])C([H])([H])C4([H])[H])c([H])c3F)c([H])c([H])c2C1([H])[H]

>  <smiles>  (50) 
[H]c1c([H])c([H])c2c(c1[H])C([H])([H])C([H])([H])C([H])([H])C2([H])N([H])C(=O)C1([H])N(C(=O)C([H])(N([H])C(=O)C([H])(N([H])C([H])([H])[H])C([H])([H])[H])C(C([H])([H])[H])(C([H])([H])[H])C([H])([H])[H])C([H])([H])c2c([H])c(Oc3c([H])c(C([H])([H])[H])c(C([H])([H])C([H])([H])C4([H])C([H])([H])C([H])([H])C([H])(N([H])C(=O)N5C([H])([H])C([H])([H])C([H])([H])C([H])(n6nc(-c7c([H])c([H])c(Oc8c([H])c([H])c(F)c([H])c8F)c([H])c7[H])c(C(=O)N([H])[H])c6N([H])[H])C5([H])[H])C([H])([H])C4([H])[H])c([H])c3F)c([H])c([H])c2C1([H])[H]

$$$$
50:0:0
     RDKit          3D

103114  0  0  1  0  0  0  0  0999 V2000
  -32.5940  -24.5800   15.2840 C   0  0  0  0  0  2  0  0  0  0  0  0
  -31.3530  -25.4870   15.4030 C   0  0  0  0  0  2  0  0  0  0  0  0
  -33.6450  -24.7570   16.4030 C   0  0  0  0  0  2  0  0  0  0  0  0
  -32.7140  -20.7390   18.3850 C   0  0  0  0  0  2  0  0  0  0  0  0
  -33.4050  -21.9740   17.8050 C   0  0  0  0  0  2  0  0  0  0  0  0
  -30.2740  -25.1070   16.4520 C   0  0  0  0  0  2  0  0  0  0  0  0
  -30.5870  -19.3860   18.6270 C   0  0  0  0  0  2  0  0  0  0  0  0
  -30.0870  -21.9670   19.9160 C   0  0  0  0  0  2  0  0  0  0  0  0
  -31.2050  -20.6690   18.0280 C   0  0  0  0  0  3  0  0  0  0  0  0
  -32.6580  -23.2120   18.2990 C   0  0  0  0  0  3  0  0  0  0  0  0
  -33.1990  -24.5810   17.8750 C   0  0  0  0  0  3  0  0  0  0  0  0
  -31.1900  -23.2060   17.8690 C   0  0  0  0  0  3  0  0  0  0  0  0
  -32.0490  -25.5180   18.2740 C   0  0  0  0  0  3  0  0  0  0  0  0
  -30.3360  -19.5090   20.1480 C   0  0  0  0  0  3  0  0  0  0  0  0
  -30.7340  -24.7280   17.9040 C   0  0  1  0  0  0  0  0  0  0  0  0
  -30.3690  -21.9570   18.3810 C   0  0  2  0  0  0  0  0  0  0  0  0
  -32.2340  -25.9440   19.7550 C   0  0  0  0  0  1  0  0  0  0  0  0
  -29.0410  -21.8620   17.5740 C   0  0  0  0  0  1  0  0  0  0  0  0
  -29.4970  -20.6990   20.4080 N   0  0  0  0  0  4  0  0  0  0  0  0
  -28.5920  -20.5770   19.9830 H   0  0  0  0  0  0  0  0  0  0  0  0
  -29.3530  -20.7900   21.4010 H   0  0  0  0  0  0  0  0  0  0  0  0
  -29.7160  -18.2370   20.7810 C   0  0  0  0  0  2  0  0  0  0  0  0
  -30.5760  -16.9780   20.5560 C   0  0  0  0  0  2  0  0  0  0  0  0
  -30.0470  -15.6770   21.2030 C   0  0  0  0  0  2  0  0  0  0  0  0
  -30.7180  -14.4390   20.5720 C   0  0  0  0  0  0  0  0  0  0  0  0
  -30.3880  -12.3200   19.3640 C   0  0  0  0  0  2  0  0  0  0  0  0
  -29.4740  -12.5820   18.1500 C   0  0  0  0  0  2  0  0  0  0  0  0
  -27.9890  -12.4680   18.5480 C   0  0  0  0  0  2  0  0  0  0  0  0
  -27.6480  -13.2840   19.8250 C   0  0  0  0  0  3  0  0  0  0  0  0
  -28.6800  -13.0230   20.9460 C   0  0  0  0  0  2  0  0  0  0  0  0
  -30.0210  -13.2860   20.4080 N   0  0  0  0  0  0  0  0  0  0  0  0
  -31.8540  -14.5860   20.1080 O   0  0  0  0  0  0  0  0  0  0  0  0
  -25.2350  -13.9130   20.4660 C   0  0  0  0  0  0  0  0  0  0  0  0
  -24.1550  -13.1520   20.8220 C   0  0  0  0  0  0  0  0  0  0  0  0
  -24.6090  -11.7980   20.8220 C   0  0  0  0  0  0  0  0  0  0  0  0
  -26.2820  -13.0240   20.2750 N   0  0  0  0  0  0  0  0  0  0  0  0
  -25.9070  -11.7480   20.5450 N   0  0  0  0  0  0  0  0  0  0  0  0
  -23.8740  -10.5420   21.0150 C   0  0  0  0  0  0  0  0  0  0  0  0
  -24.2880   -9.5820   21.9650 C   0  0  0  0  0  3  0  0  0  0  0  0
  -23.5530   -8.3910   22.1440 C   0  0  0  0  0  3  0  0  0  0  0  0
  -22.3910   -8.1510   21.3740 C   0  0  0  0  0  0  0  0  0  0  0  0
  -21.9970   -9.0990   20.4130 C   0  0  0  0  0  3  0  0  0  0  0  0
  -22.7310  -10.2820   20.2320 C   0  0  0  0  0  3  0  0  0  0  0  0
  -21.6290   -7.0090   21.4620 O   0  0  0  0  0  0  0  0  0  0  0  0
  -21.5690   -6.2720   22.6170 C   0  0  0  0  0  0  0  0  0  0  0  0
  -21.1420   -6.8350   23.8390 C   0  0  0  0  0  3  0  0  0  0  0  0
  -21.0280   -6.0250   24.9870 C   0  0  0  0  0  3  0  0  0  0  0  0
  -21.3290   -4.6520   24.9120 C   0  0  0  0  0  0  0  0  0  0  0  0
  -21.7480   -4.0880   23.6940 C   0  0  0  0  0  3  0  0  0  0  0  0
  -21.8650   -4.8960   22.5490 C   0  0  0  0  0  0  0  0  0  0  0  0
  -22.2470   -4.3430   21.3730 F   0  0  0  0  0  0  0  0  0  0  0  0
  -21.2140   -3.8710   26.0120 F   0  0  0  0  0  0  0  0  0  0  0  0
  -22.7530  -13.6390   21.0540 C   0  0  0  0  0  0  0  0  0  0  0  0
  -22.0010  -12.9600   21.9120 N   0  0  0  0  0  0  0  0  0  0  0  0
  -22.3330  -14.6590   20.5080 O   0  0  0  0  0  0  0  0  0  0  0  0
  -22.3530  -12.1340   22.3750 H   0  0  0  0  0  0  0  0  0  0  0  0
  -21.0600  -13.2690   22.1080 H   0  0  0  0  0  0  0  0  0  0  0  0
  -25.4110  -15.2800   20.2720 N   0  0  0  0  0  0  0  0  0  0  0  0
  -24.6450  -15.9400   20.3540 H   0  0  0  0  0  0  0  0  0  0  0  0
  -26.2740  -15.7100   19.9630 H   0  0  0  0  0  0  0  0  0  0  0  0
  -29.5880  -25.0580   18.9150 C   0  0  0  0  0  2  0  0  0  0  0  0
  -29.0350  -26.4970   18.8770 C   0  0  0  0  0  2  0  0  0  0  0  0
  -28.4980  -26.8130   20.1540 O   0  0  0  0  0  0  0  0  0  0  0  0
  -24.6500  -31.9080   23.2430 C   0  0  0  0  0  0  0  0  0  0  0  0
  -27.3160  -27.5090   20.1510 C   0  0  0  0  0  0  0  0  0  0  0  0
  -23.4450  -30.4940   21.6080 C   0  0  0  0  0  3  0  0  0  0  0  0
  -24.9030  -28.9630   20.1810 C   0  0  0  0  0  0  0  0  0  0  0  0
  -25.9650  -30.8700   21.4060 C   0  0  0  0  0  2  0  0  0  0  0  0
  -26.0540  -29.5010   20.7700 C   0  0  0  0  0  0  0  0  0  0  0  0
  -27.2600  -28.7740   20.7670 C   0  0  0  0  0  3  0  0  0  0  0  0
  -26.1510  -26.9650   19.5690 C   0  0  0  0  0  3  0  0  0  0  0  0
  -24.9430  -27.6910   19.5820 C   0  0  0  0  0  3  0  0  0  0  0  0
  -23.6520  -29.8090   20.2300 C   0  0  0  0  0  2  0  0  0  0  0  0
  -24.7060  -31.1020   22.1470 N   0  0  0  0  0  0  0  0  0  0  0  0
  -23.5640  -32.2000   23.7660 O   0  0  0  0  0  0  0  0  0  0  0  0
  -22.8030  -29.4720   22.5720 C   0  0  0  0  0  0  0  0  0  0  0  0
  -21.4790  -29.2840   22.4460 N   0  0  0  0  0  0  0  0  0  0  0  0
  -23.4910  -28.8500   23.3850 O   0  0  0  0  0  0  0  0  0  0  0  0
  -20.9840  -29.8390   21.7630 H   0  0  0  0  0  0  0  0  0  0  0  0
  -18.1100  -28.0770   22.9430 C   0  0  0  0  0  0  0  0  0  0  0  0
  -20.6670  -28.3420   23.2160 C   0  0  0  0  0  3  0  0  0  0  0  0
  -20.7740  -26.9120   22.6390 C   0  0  0  0  0  2  0  0  0  0  0  0
  -19.6720  -26.5870   21.6240 C   0  0  0  0  0  2  0  0  0  0  0  0
  -18.2900  -26.7280   22.2670 C   0  0  0  0  0  2  0  0  0  0  0  0
  -19.2270  -28.8410   23.3740 C   0  0  0  0  0  0  0  0  0  0  0  0
  -19.0060  -30.1040   23.9660 C   0  0  0  0  0  3  0  0  0  0  0  0
  -17.7000  -30.6040   24.1290 C   0  0  0  0  0  3  0  0  0  0  0  0
  -16.5970  -29.8370   23.7130 C   0  0  0  0  0  3  0  0  0  0  0  0
  -16.8040  -28.5750   23.1280 C   0  0  0  0  0  3  0  0  0  0  0  0
  -25.9400  -32.5330   23.8670 C   0  0  0  0  0  3  0  0  0  0  0  0
  -25.6340  -33.9300   24.1990 N   0  0  0  0  0  0  0  0  0  0  0  0
  -25.9610  -34.9810   23.4350 C   0  0  0  0  0  0  0  0  0  0  0  0
  -26.6260  -34.8770   22.4010 O   0  0  0  0  0  0  0  0  0  0  0  0
  -25.0420  -34.0870   25.0020 H   0  0  0  0  0  0  0  0  0  0  0  0
  -24.2240  -36.7650   23.0850 C   0  0  0  0  0  1  0  0  0  0  0  0
  -25.4720  -36.3690   23.8910 C   0  0  0  0  0  3  0  0  0  0  0  0
  -27.6090  -37.2580   24.7070 C   0  0  0  0  0  1  0  0  0  0  0  0
  -26.5010  -37.4250   23.7700 N   0  0  0  0  0  0  0  0  0  0  0  0
  -26.0940  -38.3440   23.9200 H   0  0  0  0  0  0  0  0  0  0  0  0
  -26.4640  -31.7570   25.1380 C   0  0  1  0  0  0  0  0  0  0  0  0
  -25.3750  -31.5180   26.2090 C   0  0  0  0  0  1  0  0  0  0  0  0
  -27.0450  -30.3800   24.7390 C   0  0  0  0  0  1  0  0  0  0  0  0
  -27.6160  -32.5500   25.7980 C   0  0  0  0  0  1  0  0  0  0  0  0
  1  2  1  0
  1  3  1  0
  2  6  1  0
  5  4  1  0
  6 15  1  0
  7 14  1  0
  8 19  1  0
  9 16  1  0
  9  4  1  0
  9  7  1  0
 10  5  1  0
 11  3  1  0
 11 13  1  0
 11 10  1  0
 12 15  1  0
 12 10  1  0
 12 16  1  0
 13 17  1  0
 14 19  1  0
 14 22  1  0
 15 13  1  0
 15 61  1  1
 16  8  1  0
 16 18  1  6
 19 21  1  0
 20 19  1  0
 23 22  1  0
 23 24  1  0
 25 24  1  0
 26 31  1  0
 27 28  1  0
 27 26  1  0
 28 29  1  0
 29 36  1  0
 29 30  1  0
 31 25  1  0
 31 30  1  0
 32 25  2  0
 33 34  2  0
 34 53  1  0
 35 34  1  0
 35 38  1  0
 36 33  1  0
 36 37  1  0
 37 35  2  0
 38 39  1  0
 39 40  2  0
 41 44  1  0
 41 40  1  0
 42 41  2  0
 43 42  1  0
 43 38  2  0
 44 45  1  0
 45 46  1  0
 46 47  2  0
 48 47  1  0
 48 52  1  0
 49 48  2  0
 50 45  2  0
 50 49  1  0
 51 50  1  0
 53 54  1  0
 54 57  1  0
 54 56  1  0
 55 53  2  0
 58 59  1  0
 58 33  1  0
 60 58  1  0
 62 61  1  0
 62 63  1  0
 64 75  2  0
 64 90  1  0
 65 63  1  0
 65 70  1  0
 66 74  1  0
 66 76  1  0
 67 73  1  0
 67 69  1  0
 68 74  1  0
 69 68  1  0
 70 69  2  0
 71 72  1  0
 71 65  2  0
 72 67  2  0
 73 66  1  0
 74 64  1  0
 76 78  2  0
 77 76  1  0
 77 81  1  0
 79 77  1  0
 80 89  2  0
 80 85  1  0
 81 85  1  0
 82 81  1  0
 83 84  1  0
 83 82  1  0
 84 80  1  0
 85 86  2  0
 86 87  1  0
 88 87  2  0
 89 88  1  0
 90 91  1  0
 90100  1  0
 91 94  1  0
 92 96  1  0
 92 91  1  0
 93 92  2  0
 95 96  1  0
 98 96  1  0
 98 99  1  0
 98 97  1  0
100103  1  1
100101  1  0
102100  1  0
M  ISO  4  24 100  25 100  62 101  63 101
M  END
>  <TORSDO>  (51) 
F 21

>  <SCORE>  (51) 
-13.549

>  <name>  (51) 
50

>  <ligand_id>  (51) 
50

>  <original_smiles>  (51) 
[H]c1c([H])c([H])c2c(c1[H])C([H])([H])C([H])([H])C([H])([H])C2([H])N([H])C(=O)C1([H])N(C(=O)C([H])(N([H])C(=O)C([H])(N([H])C([H])([H])[H])C([H])([H])[H])C(C([H])([H])[H])(C([H])([H])[H])C([H])([H])[H])C([H])([H])c2c([H])c(OC([H])([H])C([H])([H])C34C([H])([H])C([H])([H])C([H])([H])C([H])([H])C([H])(C5([H])C([H])([H])C([H])([H])C6([H])C([H])([H])C([H])(C([H])([H])C([H])([H])C([H])([H])C(=O)N7C([H])([H])C([H])([H])C([H])([H])C([H])(n8nc(-c9c([H])c([H])c(Oc%10c([H])c([H])c(F)c([H])c%10F)c([H])c9[H])c(C(=O)N([H])[H])c8N([H])[H])C7([H])[H])[N+]([H])([H])C([H])([H])C6(C([H])([H])[H])C53[H])C4([H])C([H])([H])[H])c([H])c([H])c2C1([H])[H]

>  <smiles>  (51) 
[H]c1c([H])c([H])c2c(c1[H])C([H])([H])C([H])([H])C([H])([H])C2([H])N([H])C(=O)C1([H])N(C(=O)C([H])(N([H])C(=O)C([H])(N([H])C([H])([H])[H])C([H])([H])[H])C(C([H])([H])[H])(C([H])([H])[H])C([H])([H])[H])C([H])([H])c2c([H])c(OC([H])([H])C([H])([H])C34C([H])([H])C([H])([H])C([H])([H])C([H])([H])C([H])(C5([H])C([H])([H])C([H])([H])C6([H])C([H])([H])C([H])(C([H])([H])C([H])([H])C([H])([H])C(=O)N7C([H])([H])C([H])([H])C([H])([H])C([H])(n8nc(-c9c([H])c([H])c(Oc%10c([H])c([H])c(F)c([H])c%10F)c([H])c9[H])c(C(=O)N([H])[H])c8N([H])[H])C7([H])[H])[N+]([H])([H])C([H])([H])C6(C([H])([H])[H])C53[H])C4([H])C([H])([H])[H])c([H])c([H])c2C1([H])[H]

$$$$
51:0:0
     RDKit          3D

 93102  0  0  1  0  0  0  0  0999 V2000
  -27.5190  -23.9240   22.5440 C   0  0  0  0  0  3  0  0  0  0  0  0
  -27.9740  -22.7560   21.9040 C   0  0  0  0  0  3  0  0  0  0  0  0
  -27.6380  -25.1770   21.9180 C   0  0  0  0  0  3  0  0  0  0  0  0
  -28.5890  -22.7860   20.6300 C   0  0  0  0  0  0  0  0  0  0  0  0
  -28.7450  -24.1040   20.0240 C   0  0  0  0  0  0  0  0  0  0  0  0
  -28.2280  -25.3020   20.6420 C   0  0  0  0  0  0  0  0  0  0  0  0
  -29.5030  -24.3000   18.7190 C   0  0  0  0  0  1  0  0  0  0  0  0
  -28.9860  -21.4090   20.0520 C   0  0  0  0  0  0  0  0  0  0  0  0
  -28.7230  -21.2400   18.5610 C   0  0  0  0  0  1  0  0  0  0  0  0
  -29.4220  -20.4030   20.7670 N   0  0  0  0  0  0  0  0  0  0  0  0
  -30.6830  -14.7610   20.2150 C   0  0  0  0  0  0  0  0  0  0  0  0
  -30.4140  -12.5160   19.1750 C   0  0  0  0  0  2  0  0  0  0  0  0
  -29.4490  -12.5940   17.9760 C   0  0  0  0  0  2  0  0  0  0  0  0
  -27.9980  -12.3800   18.4450 C   0  0  0  0  0  2  0  0  0  0  0  0
  -27.6360  -13.2730   19.6570 C   0  0  0  0  0  3  0  0  0  0  0  0
  -28.7210  -13.2360   20.7580 C   0  0  0  0  0  2  0  0  0  0  0  0
  -30.0090  -13.5670   20.1330 N   0  0  0  0  0  0  0  0  0  0  0  0
  -31.8610  -14.8390   19.8560 O   0  0  0  0  0  0  0  0  0  0  0  0
  -28.6740  -18.0700   20.0020 C   0  0  0  0  0  2  0  0  0  0  0  0
  -30.8670  -18.3250   21.1350 C   0  0  0  0  0  2  0  0  0  0  0  0
  -29.1860  -16.6550   19.5670 C   0  0  0  0  0  2  0  0  0  0  0  0
  -30.5330  -16.8490   21.5970 C   0  0  0  0  0  2  0  0  0  0  0  0
  -29.8350  -19.0640   20.2210 C   0  0  0  0  0  3  0  0  0  0  0  0
  -29.9960  -15.9100   20.5710 N   0  0  0  0  0  0  0  0  0  0  0  0
  -25.2730  -13.8810   20.4520 C   0  0  0  0  0  0  0  0  0  0  0  0
  -24.2160  -13.1050   20.8380 C   0  0  0  0  0  0  0  0  0  0  0  0
  -24.6790  -11.7540   20.7850 C   0  0  0  0  0  0  0  0  0  0  0  0
  -26.3080  -12.9960   20.1810 N   0  0  0  0  0  0  0  0  0  0  0  0
  -25.9600  -11.7150   20.4480 N   0  0  0  0  0  0  0  0  0  0  0  0
  -23.9630  -10.4880   20.9750 C   0  0  0  0  0  0  0  0  0  0  0  0
  -24.3990   -9.5300   21.9170 C   0  0  0  0  0  3  0  0  0  0  0  0
  -23.6830   -8.3270   22.0940 C   0  0  0  0  0  3  0  0  0  0  0  0
  -22.5170   -8.0760   21.3320 C   0  0  0  0  0  0  0  0  0  0  0  0
  -22.1030   -9.0240   20.3790 C   0  0  0  0  0  3  0  0  0  0  0  0
  -22.8200  -10.2180   20.1980 C   0  0  0  0  0  3  0  0  0  0  0  0
  -21.7710   -6.9260   21.4210 O   0  0  0  0  0  0  0  0  0  0  0  0
  -21.6960   -6.2080   22.5870 C   0  0  0  0  0  0  0  0  0  0  0  0
  -21.2050   -6.7770   23.7820 C   0  0  0  0  0  3  0  0  0  0  0  0
  -21.0750   -5.9820   24.9390 C   0  0  0  0  0  3  0  0  0  0  0  0
  -21.4280   -4.6200   24.9000 C   0  0  0  0  0  0  0  0  0  0  0  0
  -21.9120   -4.0510   23.7090 C   0  0  0  0  0  3  0  0  0  0  0  0
  -22.0430   -4.8420   22.5550 C   0  0  0  0  0  0  0  0  0  0  0  0
  -22.4900   -4.2830   21.4050 F   0  0  0  0  0  0  0  0  0  0  0  0
  -21.2980   -3.8540   26.0100 F   0  0  0  0  0  0  0  0  0  0  0  0
  -22.8230  -13.5760   21.1440 C   0  0  0  0  0  0  0  0  0  0  0  0
  -22.1160  -12.8680   22.0160 N   0  0  0  0  0  0  0  0  0  0  0  0
  -22.3720  -14.6070   20.6440 O   0  0  0  0  0  0  0  0  0  0  0  0
  -22.4940  -12.0310   22.4360 H   0  0  0  0  0  0  0  0  0  0  0  0
  -21.1860  -13.1670   22.2690 H   0  0  0  0  0  0  0  0  0  0  0  0
  -25.4340  -15.2540   20.2860 N   0  0  0  0  0  0  0  0  0  0  0  0
  -24.6740  -15.9080   20.4340 H   0  0  0  0  0  0  0  0  0  0  0  0
  -26.2870  -15.7010   19.9720 H   0  0  0  0  0  0  0  0  0  0  0  0
  -28.3150  -26.5870   20.0650 O   0  0  0  0  0  0  0  0  0  0  0  0
  -24.6410  -31.9210   23.2290 C   0  0  0  0  0  0  0  0  0  0  0  0
  -27.1990  -27.4280   20.0740 C   0  0  0  0  0  0  0  0  0  0  0  0
  -23.4030  -30.5380   21.6000 C   0  0  0  0  0  3  0  0  0  0  0  0
  -24.8250  -29.0080   20.1240 C   0  0  0  0  0  0  0  0  0  0  0  0
  -25.9350  -30.8660   21.3720 C   0  0  0  0  0  2  0  0  0  0  0  0
  -26.0020  -29.4990   20.7070 C   0  0  0  0  0  0  0  0  0  0  0  0
  -27.1930  -28.7190   20.6730 C   0  0  0  0  0  3  0  0  0  0  0  0
  -26.0070  -26.9790   19.4690 C   0  0  0  0  0  3  0  0  0  0  0  0
  -24.8280  -27.7510   19.4970 C   0  0  0  0  0  3  0  0  0  0  0  0
  -23.5870  -29.8780   20.2080 C   0  0  0  0  0  2  0  0  0  0  0  0
  -24.6800  -31.1210   22.1260 N   0  0  0  0  0  0  0  0  0  0  0  0
  -23.5640  -32.2170   23.7650 O   0  0  0  0  0  0  0  0  0  0  0  0
  -22.7570  -29.5100   22.5580 C   0  0  0  0  0  0  0  0  0  0  0  0
  -21.4310  -29.3230   22.4400 N   0  0  0  0  0  0  0  0  0  0  0  0
  -23.4480  -28.8840   23.3680 O   0  0  0  0  0  0  0  0  0  0  0  0
  -20.9340  -29.8780   21.7580 H   0  0  0  0  0  0  0  0  0  0  0  0
  -18.0700  -28.0900   22.9460 C   0  0  0  0  0  0  0  0  0  0  0  0
  -20.6270  -28.3740   23.2090 C   0  0  0  0  0  3  0  0  0  0  0  0
  -20.7420  -26.9480   22.6230 C   0  0  0  0  0  2  0  0  0  0  0  0
  -19.6370  -26.6190   21.6130 C   0  0  0  0  0  2  0  0  0  0  0  0
  -18.2570  -26.7460   22.2650 C   0  0  0  0  0  2  0  0  0  0  0  0
  -19.1820  -28.8620   23.3760 C   0  0  0  0  0  0  0  0  0  0  0  0
  -18.9530  -30.1210   23.9730 C   0  0  0  0  0  3  0  0  0  0  0  0
  -17.6440  -30.6070   24.1470 C   0  0  0  0  0  3  0  0  0  0  0  0
  -16.5460  -29.8330   23.7340 C   0  0  0  0  0  3  0  0  0  0  0  0
  -16.7590  -28.5760   23.1380 C   0  0  0  0  0  3  0  0  0  0  0  0
  -25.9390  -32.5290   23.8450 C   0  0  0  0  0  3  0  0  0  0  0  0
  -25.6500  -33.9280   24.1860 N   0  0  0  0  0  0  0  0  0  0  0  0
  -25.9780  -34.9790   23.4230 C   0  0  0  0  0  0  0  0  0  0  0  0
  -26.6270  -34.8720   22.3780 O   0  0  0  0  0  0  0  0  0  0  0  0
  -25.0680  -34.0860   24.9960 H   0  0  0  0  0  0  0  0  0  0  0  0
  -24.2560  -36.7870   23.1040 C   0  0  0  0  0  1  0  0  0  0  0  0
  -25.5100  -36.3700   23.8920 C   0  0  0  0  0  3  0  0  0  0  0  0
  -27.6630  -37.2360   24.6890 C   0  0  0  0  0  1  0  0  0  0  0  0
  -26.5480  -37.4150   23.7630 N   0  0  0  0  0  0  0  0  0  0  0  0
  -26.1510  -38.3380   23.9150 H   0  0  0  0  0  0  0  0  0  0  0  0
  -26.4590  -31.7460   25.1150 C   0  0  1  0  0  0  0  0  0  0  0  0
  -25.3720  -31.5160   26.1890 C   0  0  0  0  0  1  0  0  0  0  0  0
  -27.0260  -30.3640   24.7150 C   0  0  0  0  0  1  0  0  0  0  0  0
  -27.6230  -32.5280   25.7690 C   0  0  0  0  0  1  0  0  0  0  0  0
  2  1  2  0
  3  1  1  0
  4  2  1  0
  5  4  2  0
  5  6  1  0
  6  3  2  0
  7  5  1  0
  8  4  1  0
  8 10  2  0
  9  8  1  0
 11 24  1  0
 12 17  1  0
 13 14  1  0
 13 12  1  0
 15 14  1  0
 15 28  1  0
 15 16  1  0
 17 11  1  0
 17 16  1  0
 18 11  2  0
 19 23  1  0
 20 22  1  0
 21 19  1  0
 21 24  1  0
 23 10  1  0
 23 20  1  0
 24 22  1  0
 25 26  2  0
 26 45  1  0
 27 26  1  0
 27 30  1  0
 28 29  1  0
 28 25  1  0
 29 27  2  0
 30 31  1  0
 31 32  2  0
 33 36  1  0
 33 32  1  0
 34 33  2  0
 35 34  1  0
 35 30  2  0
 36 37  1  0
 37 38  1  0
 38 39  2  0
 40 39  1  0
 40 44  1  0
 41 40  2  0
 42 37  2  0
 42 41  1  0
 43 42  1  0
 45 46  1  0
 46 49  1  0
 46 48  1  0
 47 45  2  0
 50 51  1  0
 50 25  1  0
 52 50  1  0
 53 55  1  0
 53  6  1  0
 54 65  2  0
 55 60  1  0
 56 64  1  0
 56 66  1  0
 57 63  1  0
 57 59  1  0
 58 64  1  0
 59 58  1  0
 60 59  2  0
 61 62  1  0
 61 55  2  0
 62 57  2  0
 63 56  1  0
 64 54  1  0
 66 68  2  0
 67 66  1  0
 69 67  1  0
 70 79  2  0
 70 75  1  0
 71 67  1  0
 71 75  1  0
 72 71  1  0
 73 74  1  0
 73 72  1  0
 74 70  1  0
 75 76  2  0
 76 77  1  0
 78 77  2  0
 79 78  1  0
 80 54  1  0
 80 81  1  0
 80 90  1  0
 81 84  1  0
 82 86  1  0
 82 81  1  0
 83 82  2  0
 86 85  1  0
 88 86  1  0
 88 89  1  0
 88 87  1  0
 90 93  1  1
 90 91  1  0
 92 90  1  0
M  ISO  4   6 101  11 100  24 100  53 101
M  END
>  <TORSDO>  (52) 
F 17

>  <SCORE>  (52) 
-14.963

>  <name>  (52) 
51

>  <ligand_id>  (52) 
51

>  <original_smiles>  (52) 
[H]c1c([H])c(Oc2c([H])c([H])c3c(c2[H])C([H])([H])N(C(=O)C([H])(N([H])C(=O)C([H])(N([H])C([H])([H])[H])C([H])([H])[H])C(C([H])([H])[H])(C([H])([H])[H])C([H])([H])[H])C([H])(C(=O)N([H])C2([H])c4c([H])c([H])c([H])c([H])c4C([H])([H])C([H])([H])C2([H])[H])C3([H])[H])c(C([H])([H])[H])c(C(=NC2([H])C([H])([H])C([H])([H])N(C(=O)N3C([H])([H])C([H])([H])C([H])([H])C([H])(n4nc(-c5c([H])c([H])c(Oc6c([H])c([H])c(F)c([H])c6F)c([H])c5[H])c(C(=O)N([H])[H])c4N([H])[H])C3([H])[H])C([H])([H])C2([H])[H])C([H])([H])[H])c1[H]

>  <smiles>  (52) 
[H]c1c([H])c(Oc2c([H])c([H])c3c(c2[H])C([H])([H])N(C(=O)C([H])(N([H])C(=O)C([H])(N([H])C([H])([H])[H])C([H])([H])[H])C(C([H])([H])[H])(C([H])([H])[H])C([H])([H])[H])C([H])(C(=O)N([H])C2([H])c4c([H])c([H])c([H])c([H])c4C([H])([H])C([H])([H])C2([H])[H])C3([H])[H])c(C([H])([H])[H])c(C(=NC2([H])C([H])([H])C([H])([H])N(C(=O)N3C([H])([H])C([H])([H])C([H])([H])C([H])(n4nc(-c5c([H])c([H])c(Oc6c([H])c([H])c(F)c([H])c6F)c([H])c5[H])c(C(=O)N([H])[H])c4N([H])[H])C3([H])[H])C([H])([H])C2([H])[H])C([H])([H])[H])c1[H]

$$$$
52:0:0
     RDKit          3D

 91100  0  0  1  0  0  0  0  0999 V2000
  -27.9740  -20.9590   18.2840 C   0  0  0  0  0  3  0  0  0  0  0  0
  -29.3340  -21.2630   20.6910 C   0  0  0  0  0  3  0  0  0  0  0  0
  -28.2120  -22.2620   18.7680 C   0  0  0  0  0  0  0  0  0  0  0  0
  -28.8670  -22.4460   20.0100 C   0  0  0  0  0  0  0  0  0  0  0  0
  -28.3700  -19.8050   18.9930 C   0  0  0  0  0  0  0  0  0  0  0  0
  -29.1050  -19.9210   20.2030 C   0  0  0  0  0  0  0  0  0  0  0  0
  -27.7020  -23.4400   17.9410 C   0  0  0  0  0  2  0  0  0  0  0  0
  -29.0340  -23.9060   20.5750 C   0  0  0  0  0  2  0  0  0  0  0  0
  -28.2710  -24.8080   18.3570 C   0  0  0  0  0  2  0  0  0  0  0  0
  -28.1410  -25.0180   19.8730 C   0  0  0  0  0  3  0  0  0  0  0  0
  -27.9270  -18.4630   18.4290 C   0  0  0  0  0  1  0  0  0  0  0  0
  -28.3130  -26.4620   20.1960 O   0  0  0  0  0  0  0  0  0  0  0  0
  -24.6060  -31.8820   23.2170 C   0  0  0  0  0  0  0  0  0  0  0  0
  -27.1920  -27.3160   20.1380 C   0  0  0  0  0  0  0  0  0  0  0  0
  -23.3900  -30.4810   21.5890 C   0  0  0  0  0  3  0  0  0  0  0  0
  -24.8300  -28.9400   20.1480 C   0  0  0  0  0  0  0  0  0  0  0  0
  -25.9320  -30.7930   21.3970 C   0  0  0  0  0  2  0  0  0  0  0  0
  -26.0040  -29.4190   20.7430 C   0  0  0  0  0  0  0  0  0  0  0  0
  -27.1870  -28.6190   20.7320 C   0  0  0  0  0  3  0  0  0  0  0  0
  -25.9900  -26.9030   19.5120 C   0  0  0  0  0  3  0  0  0  0  0  0
  -24.8250  -27.6860   19.5270 C   0  0  0  0  0  3  0  0  0  0  0  0
  -23.5950  -29.8150   20.2050 C   0  0  0  0  0  2  0  0  0  0  0  0
  -24.6620  -31.0650   22.1260 N   0  0  0  0  0  0  0  0  0  0  0  0
  -23.5220  -32.1850   23.7330 O   0  0  0  0  0  0  0  0  0  0  0  0
  -22.7350  -29.4570   22.5480 C   0  0  0  0  0  0  0  0  0  0  0  0
  -21.4090  -29.2770   22.4260 N   0  0  0  0  0  0  0  0  0  0  0  0
  -23.4190  -28.8310   23.3630 O   0  0  0  0  0  0  0  0  0  0  0  0
  -20.9190  -29.8360   21.7400 H   0  0  0  0  0  0  0  0  0  0  0  0
  -18.0320  -28.0820   22.9300 C   0  0  0  0  0  0  0  0  0  0  0  0
  -20.5920  -28.3380   23.1960 C   0  0  0  0  0  3  0  0  0  0  0  0
  -20.6910  -26.9090   22.6140 C   0  0  0  0  0  2  0  0  0  0  0  0
  -19.5840  -26.5900   21.6030 C   0  0  0  0  0  2  0  0  0  0  0  0
  -18.2040  -26.7350   22.2500 C   0  0  0  0  0  2  0  0  0  0  0  0
  -19.1520  -28.8420   23.3580 C   0  0  0  0  0  0  0  0  0  0  0  0
  -18.9360  -30.1060   23.9500 C   0  0  0  0  0  3  0  0  0  0  0  0
  -17.6320  -30.6090   24.1170 C   0  0  0  0  0  3  0  0  0  0  0  0
  -16.5260  -29.8450   23.7060 C   0  0  0  0  0  3  0  0  0  0  0  0
  -16.7260  -28.5840   23.1180 C   0  0  0  0  0  3  0  0  0  0  0  0
  -25.8940  -32.4990   23.8440 C   0  0  0  0  0  3  0  0  0  0  0  0
  -26.4130  -31.7180   25.1130 C   0  0  1  0  0  0  0  0  0  0  0  0
  -25.3210  -31.4780   26.1830 C   0  0  0  0  0  1  0  0  0  0  0  0
  -26.9950  -30.3420   24.7090 C   0  0  0  0  0  1  0  0  0  0  0  0
  -27.5630  -32.5090   25.7790 C   0  0  0  0  0  1  0  0  0  0  0  0
  -25.5930  -33.8960   24.1860 N   0  0  0  0  0  0  0  0  0  0  0  0
  -25.9060  -34.9520   23.4250 C   0  0  0  0  0  0  0  0  0  0  0  0
  -26.5590  -34.8530   22.3820 O   0  0  0  0  0  0  0  0  0  0  0  0
  -25.0200  -34.0460   25.0030 H   0  0  0  0  0  0  0  0  0  0  0  0
  -24.1670  -36.7410   23.1020 C   0  0  0  0  0  1  0  0  0  0  0  0
  -25.4210  -36.3370   23.8950 C   0  0  0  0  0  3  0  0  0  0  0  0
  -27.5630  -37.2260   24.7020 C   0  0  0  0  0  1  0  0  0  0  0  0
  -26.4480  -37.3940   23.7730 N   0  0  0  0  0  0  0  0  0  0  0  0
  -26.0400  -38.3120   23.9290 H   0  0  0  0  0  0  0  0  0  0  0  0
  -29.4760  -18.6380   21.0460 C   0  0  0  0  0  2  0  0  0  0  0  0
  -30.2650  -17.3940   20.4170 C   0  0  0  0  0  3  0  0  0  0  0  0
  -29.9610  -15.9520   21.0400 C   0  0  0  0  0  3  0  0  0  0  0  0
  -30.6860  -14.6700   20.4490 C   0  0  0  0  0  0  0  0  0  0  0  0
  -30.4590  -12.4500   19.3310 C   0  0  0  0  0  2  0  0  0  0  0  0
  -29.5280  -12.5970   18.1080 C   0  0  0  0  0  2  0  0  0  0  0  0
  -28.0500  -12.4370   18.5210 C   0  0  0  0  0  2  0  0  0  0  0  0
  -27.6880  -13.2870   19.7680 C   0  0  0  0  0  3  0  0  0  0  0  0
  -28.7360  -13.1210   20.8920 C   0  0  0  0  0  2  0  0  0  0  0  0
  -30.0520  -13.4580   20.3330 N   0  0  0  0  0  0  0  0  0  0  0  0
  -31.8300  -14.8130   20.0060 O   0  0  0  0  0  0  0  0  0  0  0  0
  -25.2820  -13.8870   20.4460 C   0  0  0  0  0  0  0  0  0  0  0  0
  -24.2120  -13.1150   20.8070 C   0  0  0  0  0  0  0  0  0  0  0  0
  -24.6750  -11.7630   20.7970 C   0  0  0  0  0  0  0  0  0  0  0  0
  -26.3320  -13.0070   20.2350 N   0  0  0  0  0  0  0  0  0  0  0  0
  -25.9700  -11.7250   20.5040 N   0  0  0  0  0  0  0  0  0  0  0  0
  -23.9470  -10.5030   20.9930 C   0  0  0  0  0  0  0  0  0  0  0  0
  -24.3730   -9.5450   21.9410 C   0  0  0  0  0  3  0  0  0  0  0  0
  -23.6480   -8.3480   22.1260 C   0  0  0  0  0  3  0  0  0  0  0  0
  -22.4820   -8.0990   21.3630 C   0  0  0  0  0  0  0  0  0  0  0  0
  -22.0720   -9.0450   20.4070 C   0  0  0  0  0  3  0  0  0  0  0  0
  -22.7990  -10.2340   20.2210 C   0  0  0  0  0  3  0  0  0  0  0  0
  -21.7310   -6.9520   21.4550 O   0  0  0  0  0  0  0  0  0  0  0  0
  -21.6750   -6.2200   22.6140 C   0  0  0  0  0  0  0  0  0  0  0  0
  -21.2440   -6.7870   23.8330 C   0  0  0  0  0  3  0  0  0  0  0  0
  -21.1340   -5.9810   24.9840 C   0  0  0  0  0  3  0  0  0  0  0  0
  -21.4460   -4.6100   24.9160 C   0  0  0  0  0  0  0  0  0  0  0  0
  -21.8700   -4.0420   23.7010 C   0  0  0  0  0  3  0  0  0  0  0  0
  -21.9810   -4.8450   22.5530 C   0  0  0  0  0  0  0  0  0  0  0  0
  -22.3690   -4.2900   21.3800 F   0  0  0  0  0  0  0  0  0  0  0  0
  -21.3340   -3.8330   26.0180 F   0  0  0  0  0  0  0  0  0  0  0  0
  -22.8100  -13.5930   21.0570 C   0  0  0  0  0  0  0  0  0  0  0  0
  -22.0750  -12.9060   21.9240 N   0  0  0  0  0  0  0  0  0  0  0  0
  -22.3740  -14.6110   20.5190 O   0  0  0  0  0  0  0  0  0  0  0  0
  -22.4390  -12.0840   22.3810 H   0  0  0  0  0  0  0  0  0  0  0  0
  -21.1340  -13.2060   22.1360 H   0  0  0  0  0  0  0  0  0  0  0  0
  -25.4470  -15.2570   20.2590 N   0  0  0  0  0  0  0  0  0  0  0  0
  -24.6820  -15.9150   20.3620 H   0  0  0  0  0  0  0  0  0  0  0  0
  -26.3090  -15.6980   19.9640 H   0  0  0  0  0  0  0  0  0  0  0  0
  1  3  2  0
  1  5  1  0
  3  4  1  0
  4  8  1  0
  4  2  2  0
  5  6  2  0
  6  2  1  0
  6 53  1  0
  7  9  1  0
  7  3  1  0
  9 10  1  0
 10 12  1  0
 10  8  1  0
 11  5  1  0
 13 24  2  0
 14 12  1  0
 14 19  1  0
 15 23  1  0
 15 25  1  0
 16 22  1  0
 16 18  1  0
 17 23  1  0
 18 17  1  0
 19 18  2  0
 20 21  1  0
 20 14  2  0
 21 16  2  0
 22 15  1  0
 23 13  1  0
 25 27  2  0
 26 25  1  0
 28 26  1  0
 29 38  2  0
 29 34  1  0
 30 26  1  0
 30 34  1  0
 31 30  1  0
 32 33  1  0
 32 31  1  0
 33 29  1  0
 34 35  2  0
 35 36  1  0
 37 36  2  0
 38 37  1  0
 39 13  1  0
 39 44  1  0
 39 40  1  0
 40 43  1  1
 40 41  1  0
 42 40  1  0
 44 47  1  0
 45 49  1  0
 45 44  1  0
 46 45  2  0
 49 48  1  0
 51 49  1  0
 51 52  1  0
 51 50  1  0
 54 55  2  0
 54 53  1  0
 56 55  1  0
 57 62  1  0
 58 59  1  0
 58 57  1  0
 60 59  1  0
 60 67  1  0
 60 61  1  0
 62 56  1  0
 62 61  1  0
 63 56  2  0
 64 65  2  0
 65 84  1  0
 66 65  1  0
 66 69  1  0
 67 64  1  0
 67 68  1  0
 68 66  2  0
 69 70  1  0
 70 71  2  0
 72 75  1  0
 72 71  1  0
 73 72  2  0
 74 73  1  0
 74 69  2  0
 75 76  1  0
 76 77  1  0
 77 78  2  0
 79 78  1  0
 79 83  1  0
 80 79  2  0
 81 76  2  0
 81 80  1  0
 82 81  1  0
 84 85  1  0
 85 88  1  0
 85 87  1  0
 86 84  2  0
 89 90  1  0
 89 64  1  0
 91 89  1  0
M  ISO  4  10 101  12 101  55 100  56 100
M  END
>  <TORSDO>  (53) 
F 19

>  <SCORE>  (53) 
-14.341

>  <name>  (53) 
52

>  <ligand_id>  (53) 
52

>  <original_smiles>  (53) 
[H]c1c([H])c([H])c2c(c1[H])C([H])([H])C([H])([H])C([H])([H])C2([H])N([H])C(=O)C1([H])N(C(=O)C([H])(N([H])C(=O)C([H])(N([H])C([H])([H])[H])C([H])([H])[H])C(C([H])([H])[H])(C([H])([H])[H])C([H])([H])[H])C([H])([H])c2c([H])c(OC3([H])C([H])([H])c4c([H])c(C([H])([H])C([H])([H])C([H])([H])C(=O)N5C([H])([H])C([H])([H])C([H])([H])C([H])(n6nc(-c7c([H])c([H])c(Oc8c([H])c([H])c(F)c([H])c8F)c([H])c7[H])c(C(=O)N([H])[H])c6N([H])[H])C5([H])[H])c(C([H])([H])[H])c([H])c4C([H])([H])C3([H])[H])c([H])c([H])c2C1([H])[H]

>  <smiles>  (53) 
[H]c1c([H])c([H])c2c(c1[H])C([H])([H])C([H])([H])C([H])([H])C2([H])N([H])C(=O)C1([H])N(C(=O)C([H])(N([H])C(=O)C([H])(N([H])C([H])([H])[H])C([H])([H])[H])C(C([H])([H])[H])(C([H])([H])[H])C([H])([H])[H])C([H])([H])c2c([H])c(OC3([H])C([H])([H])c4c([H])c(C([H])([H])C([H])([H])C([H])([H])C(=O)N5C([H])([H])C([H])([H])C([H])([H])C([H])(n6nc(-c7c([H])c([H])c(Oc8c([H])c([H])c(F)c([H])c8F)c([H])c7[H])c(C(=O)N([H])[H])c6N([H])[H])C5([H])[H])c(C([H])([H])[H])c([H])c4C([H])([H])C3([H])[H])c([H])c([H])c2C1([H])[H]

$$$$
53:0:0
     RDKit          3D

 95103  0  0  1  0  0  0  0  0999 V2000
  -30.4480  -23.0180   18.9370 C   0  0  0  0  0  0  0  0  0  0  0  0
  -30.9990  -23.7740   19.8930 N   0  0  0  0  0  0  0  0  0  0  0  0
  -30.0330  -23.4720   17.8670 O   0  0  0  0  0  0  0  0  0  0  0  0
  -31.2980  -23.2960   20.7310 H   0  0  0  0  0  0  0  0  0  0  0  0
  -31.1490  -20.8840   20.1270 C   0  0  0  0  0  3  0  0  0  0  0  0
  -30.9380  -19.5250   20.4340 C   0  0  0  0  0  3  0  0  0  0  0  0
  -29.1400  -20.8790   18.7570 C   0  0  0  0  0  3  0  0  0  0  0  0
  -30.2460  -21.5740   19.2890 C   0  0  0  0  0  0  0  0  0  0  0  0
  -29.8260  -18.8300   19.9050 C   0  0  0  0  0  0  0  0  0  0  0  0
  -28.9230  -19.5200   19.0560 C   0  0  0  0  0  0  0  0  0  0  0  0
  -27.7170  -18.8260   18.4440 C   0  0  0  0  0  1  0  0  0  0  0  0
  -29.6130  -17.3430   20.1790 C   0  0  0  0  0  2  0  0  0  0  0  0
  -30.3680  -16.7240   21.3740 C   0  0  0  0  0  2  0  0  0  0  0  0
  -30.6910  -14.3980   20.6160 C   0  0  0  0  0  0  0  0  0  0  0  0
  -30.3610  -12.3150   19.3500 C   0  0  0  0  0  2  0  0  0  0  0  0
  -29.4320  -12.5830   18.1490 C   0  0  0  0  0  2  0  0  0  0  0  0
  -27.9530  -12.4460   18.5600 C   0  0  0  0  0  2  0  0  0  0  0  0
  -27.6160  -13.2440   19.8490 C   0  0  0  0  0  3  0  0  0  0  0  0
  -28.6540  -12.9560   20.9570 C   0  0  0  0  0  2  0  0  0  0  0  0
  -29.9970  -13.2480   20.4240 N   0  0  0  0  0  0  0  0  0  0  0  0
  -31.7450  -14.6650   20.0290 O   0  0  0  0  0  0  0  0  0  0  0  0
  -30.0950  -15.2900   21.4140 N   0  0  0  0  0  0  0  0  0  0  0  0
  -29.2600  -14.9850   21.8910 H   0  0  0  0  0  0  0  0  0  0  0  0
  -25.1990  -13.8480   20.5100 C   0  0  0  0  0  0  0  0  0  0  0  0
  -24.1300  -13.0730   20.8700 C   0  0  0  0  0  0  0  0  0  0  0  0
  -24.5970  -11.7240   20.8530 C   0  0  0  0  0  0  0  0  0  0  0  0
  -26.2530  -12.9700   20.3030 N   0  0  0  0  0  0  0  0  0  0  0  0
  -25.8900  -11.6870   20.5610 N   0  0  0  0  0  0  0  0  0  0  0  0
  -23.8740  -10.4590   21.0420 C   0  0  0  0  0  0  0  0  0  0  0  0
  -24.2990   -9.4990   21.9880 C   0  0  0  0  0  3  0  0  0  0  0  0
  -23.5780   -8.2990   22.1630 C   0  0  0  0  0  3  0  0  0  0  0  0
  -22.4170   -8.0480   21.3930 C   0  0  0  0  0  0  0  0  0  0  0  0
  -22.0110   -8.9960   20.4370 C   0  0  0  0  0  3  0  0  0  0  0  0
  -22.7330  -10.1890   20.2590 C   0  0  0  0  0  3  0  0  0  0  0  0
  -21.6690   -6.9000   21.4770 O   0  0  0  0  0  0  0  0  0  0  0  0
  -21.6080   -6.1630   22.6330 C   0  0  0  0  0  0  0  0  0  0  0  0
  -21.1500   -6.7180   23.8470 C   0  0  0  0  0  3  0  0  0  0  0  0
  -21.0390   -5.9070   24.9950 C   0  0  0  0  0  3  0  0  0  0  0  0
  -21.3750   -4.5420   24.9280 C   0  0  0  0  0  0  0  0  0  0  0  0
  -21.8250   -3.9860   23.7160 C   0  0  0  0  0  3  0  0  0  0  0  0
  -21.9390   -4.7940   22.5720 C   0  0  0  0  0  0  0  0  0  0  0  0
  -22.3540   -4.2480   21.4030 F   0  0  0  0  0  0  0  0  0  0  0  0
  -21.2600   -3.7600   26.0260 F   0  0  0  0  0  0  0  0  0  0  0  0
  -22.7260  -13.5440   21.1230 C   0  0  0  0  0  0  0  0  0  0  0  0
  -21.9900  -12.8480   21.9820 N   0  0  0  0  0  0  0  0  0  0  0  0
  -22.2900  -14.5670   20.5950 O   0  0  0  0  0  0  0  0  0  0  0  0
  -22.3540  -12.0220   22.4320 H   0  0  0  0  0  0  0  0  0  0  0  0
  -21.0490  -13.1460   22.1930 H   0  0  0  0  0  0  0  0  0  0  0  0
  -25.3610  -15.2180   20.3270 N   0  0  0  0  0  0  0  0  0  0  0  0
  -24.5900  -15.8710   20.4180 H   0  0  0  0  0  0  0  0  0  0  0  0
  -26.2190  -15.6560   20.0170 H   0  0  0  0  0  0  0  0  0  0  0  0
  -30.9760  -25.2340   19.9200 C   0  0  0  0  0  2  0  0  0  0  0  0
  -30.2660  -25.7210   21.1960 C   0  0  0  0  0  2  0  0  0  0  0  0
  -29.4810  -27.0210   20.9970 C   0  0  0  0  0  2  0  0  0  0  0  0
  -28.4130  -26.7250   20.1000 O   0  0  0  0  0  0  0  0  0  0  0  0
  -24.6190  -31.8890   23.2490 C   0  0  0  0  0  0  0  0  0  0  0  0
  -27.2750  -27.4920   20.1570 C   0  0  0  0  0  0  0  0  0  0  0  0
  -23.4060  -30.4830   21.6110 C   0  0  0  0  0  3  0  0  0  0  0  0
  -24.8580  -28.9500   20.1800 C   0  0  0  0  0  0  0  0  0  0  0  0
  -25.9230  -30.8580   21.4000 C   0  0  0  0  0  2  0  0  0  0  0  0
  -26.0100  -29.4910   20.7650 C   0  0  0  0  0  0  0  0  0  0  0  0
  -27.2200  -28.7720   20.7550 C   0  0  0  0  0  3  0  0  0  0  0  0
  -26.1110  -26.9590   19.5680 C   0  0  0  0  0  3  0  0  0  0  0  0
  -24.9000  -27.6790   19.5810 C   0  0  0  0  0  3  0  0  0  0  0  0
  -23.6090  -29.8000   20.2310 C   0  0  0  0  0  2  0  0  0  0  0  0
  -24.6680  -31.0870   22.1480 N   0  0  0  0  0  0  0  0  0  0  0  0
  -23.5370  -32.1790   23.7780 O   0  0  0  0  0  0  0  0  0  0  0  0
  -22.7610  -29.4610   22.5730 C   0  0  0  0  0  0  0  0  0  0  0  0
  -21.4380  -29.2760   22.4460 N   0  0  0  0  0  0  0  0  0  0  0  0
  -23.4480  -28.8350   23.3860 O   0  0  0  0  0  0  0  0  0  0  0  0
  -20.9460  -29.8310   21.7600 H   0  0  0  0  0  0  0  0  0  0  0  0
  -18.0640  -28.0880   22.9430 C   0  0  0  0  0  0  0  0  0  0  0  0
  -20.6210  -28.3360   23.2130 C   0  0  0  0  0  3  0  0  0  0  0  0
  -20.7200  -26.9070   22.6280 C   0  0  0  0  0  2  0  0  0  0  0  0
  -19.6150  -26.5930   21.6150 C   0  0  0  0  0  2  0  0  0  0  0  0
  -18.2350  -26.7390   22.2630 C   0  0  0  0  0  2  0  0  0  0  0  0
  -19.1860  -28.8430   23.3750 C   0  0  0  0  0  0  0  0  0  0  0  0
  -18.9720  -30.1060   23.9710 C   0  0  0  0  0  3  0  0  0  0  0  0
  -17.6700  -30.6110   24.1400 C   0  0  0  0  0  3  0  0  0  0  0  0
  -16.5620  -29.8520   23.7240 C   0  0  0  0  0  3  0  0  0  0  0  0
  -16.7600  -28.5920   23.1320 C   0  0  0  0  0  3  0  0  0  0  0  0
  -25.9120  -32.5050   23.8730 C   0  0  0  0  0  3  0  0  0  0  0  0
  -25.6150  -33.9030   24.2070 N   0  0  0  0  0  0  0  0  0  0  0  0
  -25.9440  -34.9520   23.4420 C   0  0  0  0  0  0  0  0  0  0  0  0
  -26.6040  -34.8440   22.4060 O   0  0  0  0  0  0  0  0  0  0  0  0
  -25.0270  -34.0620   25.0130 H   0  0  0  0  0  0  0  0  0  0  0  0
  -24.2170  -36.7450   23.0960 C   0  0  0  0  0  1  0  0  0  0  0  0
  -25.4630  -36.3410   23.8990 C   0  0  0  0  0  3  0  0  0  0  0  0
  -27.6030  -37.2230   24.7160 C   0  0  0  0  0  1  0  0  0  0  0  0
  -26.4970  -37.3910   23.7770 N   0  0  0  0  0  0  0  0  0  0  0  0
  -26.0930  -38.3130   23.9230 H   0  0  0  0  0  0  0  0  0  0  0  0
  -26.4330  -31.7240   25.1430 C   0  0  1  0  0  0  0  0  0  0  0  0
  -25.3430  -31.4850   26.2130 C   0  0  0  0  0  1  0  0  0  0  0  0
  -27.0100  -30.3480   24.7380 C   0  0  0  0  0  1  0  0  0  0  0  0
  -27.5880  -32.5120   25.8060 C   0  0  0  0  0  1  0  0  0  0  0  0
  1  8  1  0
  1  2  1  0
  2 52  1  0
  2  4  1  0
  3  1  2  0
  5  6  1  0
  7 10  2  0
  7  8  1  0
  8  5  2  0
  9 12  1  0
  9  6  2  0
 10  9  1  0
 11 10  1  0
 12 13  1  0
 13 22  1  0
 14 22  1  0
 15 20  1  0
 16 17  1  0
 16 15  1  0
 18 17  1  0
 18 27  1  0
 18 19  1  0
 20 14  1  0
 20 19  1  0
 21 14  2  0
 22 23  1  0
 24 25  2  0
 25 44  1  0
 26 25  1  0
 26 29  1  0
 27 24  1  0
 27 28  1  0
 28 26  2  0
 29 30  1  0
 30 31  2  0
 32 35  1  0
 32 31  1  0
 33 32  2  0
 34 33  1  0
 34 29  2  0
 35 36  1  0
 36 37  1  0
 37 38  2  0
 39 38  1  0
 39 43  1  0
 40 39  2  0
 41 36  2  0
 41 40  1  0
 42 41  1  0
 44 45  1  0
 45 48  1  0
 45 47  1  0
 46 44  2  0
 49 50  1  0
 49 24  1  0
 51 49  1  0
 52 53  1  0
 54 53  1  0
 55 57  1  0
 55 54  1  0
 56 67  2  0
 57 62  1  0
 58 66  1  0
 58 68  1  0
 59 65  1  0
 59 61  1  0
 60 66  1  0
 61 60  1  0
 62 61  2  0
 63 64  1  0
 63 57  2  0
 64 59  2  0
 65 58  1  0
 66 56  1  0
 68 70  2  0
 69 68  1  0
 71 69  1  0
 72 81  2  0
 72 77  1  0
 73 69  1  0
 73 77  1  0
 74 73  1  0
 75 76  1  0
 75 74  1  0
 76 72  1  0
 77 78  2  0
 78 79  1  0
 80 79  2  0
 81 80  1  0
 82 56  1  0
 82 83  1  0
 82 92  1  0
 83 86  1  0
 84 88  1  0
 84 83  1  0
 85 84  2  0
 88 87  1  0
 90 88  1  0
 90 91  1  0
 90 89  1  0
 92 95  1  1
 92 93  1  0
 94 92  1  0
M  ISO  4  14 100  22 100  54 101  55 101
M  END
>  <TORSDO>  (54) 
F 22

>  <SCORE>  (54) 
-13.315

>  <name>  (54) 
53

>  <ligand_id>  (54) 
53

>  <original_smiles>  (54) 
[H]c1c([H])c([H])c2c(c1[H])C([H])([H])C([H])([H])C([H])([H])C2([H])N([H])C(=O)C1([H])N(C(=O)C([H])(N([H])C(=O)C([H])(N([H])C([H])([H])[H])C([H])([H])[H])C(C([H])([H])[H])(C([H])([H])[H])C([H])([H])[H])C([H])([H])c2c([H])c(OC([H])([H])C([H])([H])C([H])([H])N([H])C(=O)c3c([H])c([H])c(C([H])([H])C([H])([H])N([H])C(=O)N4C([H])([H])C([H])([H])C([H])([H])C([H])(n5nc(-c6c([H])c([H])c(Oc7c([H])c([H])c(F)c([H])c7F)c([H])c6[H])c(C(=O)N([H])[H])c5N([H])[H])C4([H])[H])c(C([H])([H])[H])c3[H])c([H])c([H])c2C1([H])[H]

>  <smiles>  (54) 
[H]c1c([H])c([H])c2c(c1[H])C([H])([H])C([H])([H])C([H])([H])C2([H])N([H])C(=O)C1([H])N(C(=O)C([H])(N([H])C(=O)C([H])(N([H])C([H])([H])[H])C([H])([H])[H])C(C([H])([H])[H])(C([H])([H])[H])C([H])([H])[H])C([H])([H])c2c([H])c(OC([H])([H])C([H])([H])C([H])([H])N([H])C(=O)c3c([H])c([H])c(C([H])([H])C([H])([H])N([H])C(=O)N4C([H])([H])C([H])([H])C([H])([H])C([H])(n5nc(-c6c([H])c([H])c(Oc7c([H])c([H])c(F)c([H])c7F)c([H])c6[H])c(C(=O)N([H])[H])c5N([H])[H])C4([H])[H])c(C([H])([H])[H])c3[H])c([H])c([H])c2C1([H])[H]

$$$$
54:0:0
     RDKit          3D

 98106  0  0  1  0  0  0  0  0999 V2000
  -30.7850  -23.1040   20.1120 C   0  0  0  0  0  3  0  0  0  0  0  0
  -29.3770  -24.0190   17.8740 C   0  0  0  0  0  3  0  0  0  0  0  0
  -30.6800  -22.2690   18.9770 C   0  0  0  0  0  0  0  0  0  0  0  0
  -30.1940  -24.3850   20.1400 C   0  0  0  0  0  0  0  0  0  0  0  0
  -29.9580  -22.7360   17.8450 C   0  0  0  0  0  0  0  0  0  0  0  0
  -29.4830  -24.8540   19.0030 C   0  0  0  0  0  0  0  0  0  0  0  0
  -30.3630  -25.2160   21.4020 C   0  0  0  0  0  1  0  0  0  0  0  0
  -29.7650  -21.8910   16.5920 C   0  0  0  0  0  1  0  0  0  0  0  0
  -31.3970  -20.9630   18.9790 C   0  0  0  0  0  0  0  0  0  0  0  0
  -32.0740  -20.5670   18.0250 O   0  0  0  0  0  0  0  0  0  0  0  0
  -31.1810  -20.0480   20.1990 C   0  0  0  0  0  2  0  0  0  0  0  0
  -33.4950  -19.3680   21.0140 C   0  0  0  0  0  1  0  0  0  0  0  0
  -32.2010  -18.8810   20.3380 C   0  0  0  0  0  3  0  0  0  0  0  0
  -31.6320  -17.6410   21.0760 C   0  0  0  0  0  2  0  0  0  0  0  0
  -30.3460  -17.0170   20.4640 C   0  0  0  0  0  3  0  0  0  0  0  0
  -30.4190  -16.9320   18.9820 N   0  0  0  0  0  4  0  0  0  0  0  0
  -31.0830  -16.2170   18.7190 H   0  0  0  0  0  0  0  0  0  0  0  0
  -30.7240  -17.7990   18.5800 H   0  0  0  0  0  0  0  0  0  0  0  0
  -29.5240  -16.7100   18.5820 H   0  0  0  0  0  0  0  0  0  0  0  0
  -29.9640  -15.6510   21.1170 C   0  0  0  0  0  2  0  0  0  0  0  0
  -30.6640  -14.4220   20.4970 C   0  0  0  0  0  0  0  0  0  0  0  0
  -30.3410  -12.3050   19.2860 C   0  0  0  0  0  2  0  0  0  0  0  0
  -29.4070  -12.5600   18.0840 C   0  0  0  0  0  2  0  0  0  0  0  0
  -27.9310  -12.4280   18.5100 C   0  0  0  0  0  2  0  0  0  0  0  0
  -27.6000  -13.2500   19.7840 C   0  0  0  0  0  3  0  0  0  0  0  0
  -28.6460  -12.9790   20.8920 C   0  0  0  0  0  2  0  0  0  0  0  0
  -29.9810  -13.2600   20.3420 N   0  0  0  0  0  0  0  0  0  0  0  0
  -31.7770  -14.5970   19.9910 O   0  0  0  0  0  0  0  0  0  0  0  0
  -25.1970  -13.8860   20.4560 C   0  0  0  0  0  0  0  0  0  0  0  0
  -24.1200  -13.1230   20.8220 C   0  0  0  0  0  0  0  0  0  0  0  0
  -24.5740  -11.7690   20.8100 C   0  0  0  0  0  0  0  0  0  0  0  0
  -26.2400  -12.9940   20.2470 N   0  0  0  0  0  0  0  0  0  0  0  0
  -25.8670  -11.7180   20.5180 N   0  0  0  0  0  0  0  0  0  0  0  0
  -23.8410  -10.5130   21.0060 C   0  0  0  0  0  0  0  0  0  0  0  0
  -24.2670   -9.5480   21.9440 C   0  0  0  0  0  3  0  0  0  0  0  0
  -23.5360   -8.3550   22.1260 C   0  0  0  0  0  3  0  0  0  0  0  0
  -22.3640   -8.1200   21.3680 C   0  0  0  0  0  0  0  0  0  0  0  0
  -21.9580   -9.0720   20.4180 C   0  0  0  0  0  3  0  0  0  0  0  0
  -22.6900  -10.2580   20.2350 C   0  0  0  0  0  3  0  0  0  0  0  0
  -21.6050   -6.9780   21.4590 O   0  0  0  0  0  0  0  0  0  0  0  0
  -21.5580   -6.2330   22.6110 C   0  0  0  0  0  0  0  0  0  0  0  0
  -21.1470   -6.7920   23.8410 C   0  0  0  0  0  3  0  0  0  0  0  0
  -21.0460   -5.9770   24.9850 C   0  0  0  0  0  3  0  0  0  0  0  0
  -21.3470   -4.6040   24.9020 C   0  0  0  0  0  0  0  0  0  0  0  0
  -21.7510   -4.0450   23.6760 C   0  0  0  0  0  3  0  0  0  0  0  0
  -21.8530   -4.8580   22.5340 C   0  0  0  0  0  0  0  0  0  0  0  0
  -22.2210   -4.3100   21.3510 F   0  0  0  0  0  0  0  0  0  0  0  0
  -21.2430   -3.8180   25.9980 F   0  0  0  0  0  0  0  0  0  0  0  0
  -22.7240  -13.6100   21.0790 C   0  0  0  0  0  0  0  0  0  0  0  0
  -21.9870  -12.9220   21.9450 N   0  0  0  0  0  0  0  0  0  0  0  0
  -22.2940  -14.6330   20.5500 O   0  0  0  0  0  0  0  0  0  0  0  0
  -22.3460  -12.0890   22.3880 H   0  0  0  0  0  0  0  0  0  0  0  0
  -21.0500  -13.2290   22.1630 H   0  0  0  0  0  0  0  0  0  0  0  0
  -25.3700  -15.2530   20.2650 N   0  0  0  0  0  0  0  0  0  0  0  0
  -24.6040  -15.9120   20.3590 H   0  0  0  0  0  0  0  0  0  0  0  0
  -26.2250  -15.6860   19.9400 H   0  0  0  0  0  0  0  0  0  0  0  0
  -28.8740  -26.2520   18.8970 C   0  0  0  0  0  2  0  0  0  0  0  0
  -28.4080  -26.7790   20.1330 O   0  0  0  0  0  0  0  0  0  0  0  0
  -24.5920  -31.8880   23.2400 C   0  0  0  0  0  0  0  0  0  0  0  0
  -27.2290  -27.4800   20.1220 C   0  0  0  0  0  0  0  0  0  0  0  0
  -23.3770  -30.4800   21.6100 C   0  0  0  0  0  3  0  0  0  0  0  0
  -24.8230  -28.9480   20.1720 C   0  0  0  0  0  0  0  0  0  0  0  0
  -25.8990  -30.8450   21.3990 C   0  0  0  0  0  2  0  0  0  0  0  0
  -25.9800  -29.4790   20.7570 C   0  0  0  0  0  0  0  0  0  0  0  0
  -27.1820  -28.7430   20.7440 C   0  0  0  0  0  3  0  0  0  0  0  0
  -26.0530  -26.9430   19.5540 C   0  0  0  0  0  3  0  0  0  0  0  0
  -24.8510  -27.6760   19.5750 C   0  0  0  0  0  3  0  0  0  0  0  0
  -23.5760  -29.8020   20.2280 C   0  0  0  0  0  2  0  0  0  0  0  0
  -24.6420  -31.0830   22.1440 N   0  0  0  0  0  0  0  0  0  0  0  0
  -23.5100  -32.1810   23.7690 O   0  0  0  0  0  0  0  0  0  0  0  0
  -22.7360  -29.4560   22.5730 C   0  0  0  0  0  0  0  0  0  0  0  0
  -21.4110  -29.2710   22.4500 N   0  0  0  0  0  0  0  0  0  0  0  0
  -23.4250  -28.8300   23.3810 O   0  0  0  0  0  0  0  0  0  0  0  0
  -20.9180  -29.8300   21.7670 H   0  0  0  0  0  0  0  0  0  0  0  0
  -18.0410  -28.0750   22.9570 C   0  0  0  0  0  0  0  0  0  0  0  0
  -20.5990  -28.3320   23.2200 C   0  0  0  0  0  3  0  0  0  0  0  0
  -20.6990  -26.9020   22.6390 C   0  0  0  0  0  2  0  0  0  0  0  0
  -19.5940  -26.5830   21.6290 C   0  0  0  0  0  2  0  0  0  0  0  0
  -18.2140  -26.7280   22.2770 C   0  0  0  0  0  2  0  0  0  0  0  0
  -19.1620  -28.8360   23.3840 C   0  0  0  0  0  0  0  0  0  0  0  0
  -18.9450  -30.1000   23.9760 C   0  0  0  0  0  3  0  0  0  0  0  0
  -17.6420  -30.6020   24.1460 C   0  0  0  0  0  3  0  0  0  0  0  0
  -16.5360  -29.8380   23.7360 C   0  0  0  0  0  3  0  0  0  0  0  0
  -16.7360  -28.5780   23.1470 C   0  0  0  0  0  3  0  0  0  0  0  0
  -25.8850  -32.5080   23.8610 C   0  0  0  0  0  3  0  0  0  0  0  0
  -26.4100  -31.7290   25.1300 C   0  0  1  0  0  0  0  0  0  0  0  0
  -25.3230  -31.4860   26.2010 C   0  0  0  0  0  1  0  0  0  0  0  0
  -26.9920  -30.3550   24.7260 C   0  0  0  0  0  1  0  0  0  0  0  0
  -27.5640  -32.5210   25.7910 C   0  0  0  0  0  1  0  0  0  0  0  0
  -25.5840  -33.9050   24.1980 N   0  0  0  0  0  0  0  0  0  0  0  0
  -25.9130  -34.9570   23.4370 C   0  0  0  0  0  0  0  0  0  0  0  0
  -26.5760  -34.8530   22.4000 O   0  0  0  0  0  0  0  0  0  0  0  0
  -24.9950  -34.0610   25.0030 H   0  0  0  0  0  0  0  0  0  0  0  0
  -24.1820  -36.7480   23.0900 C   0  0  0  0  0  1  0  0  0  0  0  0
  -25.4270  -36.3440   23.8970 C   0  0  0  0  0  3  0  0  0  0  0  0
  -27.5660  -37.2240   24.7190 C   0  0  0  0  0  1  0  0  0  0  0  0
  -26.4600  -37.3960   23.7810 N   0  0  0  0  0  0  0  0  0  0  0  0
  -26.0540  -38.3170   23.9360 H   0  0  0  0  0  0  0  0  0  0  0  0
  1  4  1  0
  2  6  1  0
  3  9  1  0
  3  1  2  0
  4  7  1  0
  5  2  2  0
  5  3  1  0
  6  4  2  0
  8  5  1  0
  9 11  1  0
 10  9  2  0
 11 13  1  0
 13 12  1  0
 13 14  1  0
 15 14  1  0
 15 20  1  0
 16 15  1  0
 17 16  1  0
 18 16  1  0
 19 16  1  0
 21 20  1  0
 22 27  1  0
 23 24  1  0
 23 22  1  0
 25 24  1  0
 25 32  1  0
 25 26  1  0
 27 21  1  0
 27 26  1  0
 28 21  2  0
 29 30  2  0
 30 49  1  0
 31 30  1  0
 31 34  1  0
 32 29  1  0
 32 33  1  0
 33 31  2  0
 34 35  1  0
 35 36  2  0
 37 40  1  0
 37 36  1  0
 38 37  2  0
 39 38  1  0
 39 34  2  0
 40 41  1  0
 41 42  1  0
 42 43  2  0
 44 43  1  0
 44 48  1  0
 45 44  2  0
 46 41  2  0
 46 45  1  0
 47 46  1  0
 49 50  1  0
 50 53  1  0
 50 52  1  0
 51 49  2  0
 54 55  1  0
 54 29  1  0
 56 54  1  0
 57  6  1  0
 57 58  1  0
 59 70  2  0
 60 58  1  0
 60 65  1  0
 61 69  1  0
 61 71  1  0
 62 68  1  0
 62 64  1  0
 63 69  1  0
 64 63  1  0
 65 64  2  0
 66 67  1  0
 66 60  2  0
 67 62  2  0
 68 61  1  0
 69 59  1  0
 71 73  2  0
 72 71  1  0
 74 72  1  0
 75 84  2  0
 75 80  1  0
 76 72  1  0
 76 80  1  0
 77 76  1  0
 78 79  1  0
 78 77  1  0
 79 75  1  0
 80 81  2  0
 81 82  1  0
 83 82  2  0
 84 83  1  0
 85 59  1  0
 85 90  1  0
 85 86  1  0
 86 89  1  1
 86 87  1  0
 88 86  1  0
 90 93  1  0
 91 95  1  0
 91 90  1  0
 92 91  2  0
 95 94  1  0
 97 95  1  0
 97 98  1  0
 97 96  1  0
M  ISO  4  20 100  21 100  57 101  58 101
M  END
>  <TORSDO>  (55) 
F 24

>  <SCORE>  (55) 
-12.862

>  <name>  (55) 
54

>  <ligand_id>  (55) 
54

>  <original_smiles>  (55) 
[H]c1c([H])c([H])c2c(c1[H])C([H])([H])C([H])([H])C([H])([H])C2([H])N([H])C(=O)C1([H])N(C(=O)C([H])(N([H])C(=O)C([H])(N([H])C([H])([H])[H])C([H])([H])[H])C(C([H])([H])[H])(C([H])([H])[H])C([H])([H])[H])C([H])([H])c2c([H])c(OC([H])([H])c3c([H])c(C([H])([H])[H])c(C(=O)C([H])([H])C([H])(C([H])([H])[H])C([H])([H])C([H])(C([H])([H])C(=O)N4C([H])([H])C([H])([H])C([H])([H])C([H])(n5nc(-c6c([H])c([H])c(Oc7c([H])c([H])c(F)c([H])c7F)c([H])c6[H])c(C(=O)N([H])[H])c5N([H])[H])C4([H])[H])[N+]([H])([H])[H])c([H])c3C([H])([H])[H])c([H])c([H])c2C1([H])[H]

>  <smiles>  (55) 
[H]c1c([H])c([H])c2c(c1[H])C([H])([H])C([H])([H])C([H])([H])C2([H])N([H])C(=O)C1([H])N(C(=O)C([H])(N([H])C(=O)C([H])(N([H])C([H])([H])[H])C([H])([H])[H])C(C([H])([H])[H])(C([H])([H])[H])C([H])([H])[H])C([H])([H])c2c([H])c(OC([H])([H])c3c([H])c(C([H])([H])[H])c(C(=O)C([H])([H])C([H])(C([H])([H])[H])C([H])([H])C([H])(C([H])([H])C(=O)N4C([H])([H])C([H])([H])C([H])([H])C([H])(n5nc(-c6c([H])c([H])c(Oc7c([H])c([H])c(F)c([H])c7F)c([H])c6[H])c(C(=O)N([H])[H])c5N([H])[H])C4([H])[H])[N+]([H])([H])[H])c([H])c3C([H])([H])[H])c([H])c([H])c2C1([H])[H]

$$$$
55:0:0
     RDKit          3D

 93101  0  0  1  0  0  0  0  0999 V2000
  -28.8120  -20.1940   16.7500 C   0  0  0  0  0  3  0  0  0  0  0  0
  -28.4950  -18.8580   17.0300 C   0  0  0  0  0  3  0  0  0  0  0  0
  -29.2770  -21.0290   17.7800 C   0  0  0  0  0  3  0  0  0  0  0  0
  -28.6550  -18.3640   18.3370 C   0  0  0  0  0  3  0  0  0  0  0  0
  -29.4420  -20.5570   19.1050 C   0  0  0  0  0  0  0  0  0  0  0  0
  -29.1500  -19.1760   19.3860 C   0  0  0  0  0  0  0  0  0  0  0  0
  -29.9540  -21.6100   20.1070 C   0  0  0  0  0  2  0  0  0  0  0  0
  -28.9340  -22.7620   20.3910 C   0  0  0  0  0  2  0  0  0  0  0  0
  -30.4090  -24.7160   21.1840 C   0  0  0  0  0  1  0  0  0  0  0  0
  -29.3890  -24.2430   20.1410 C   0  0  0  0  0  3  0  0  0  0  0  0
  -28.1510  -25.1880   20.0880 C   0  0  0  0  0  2  0  0  0  0  0  0
  -28.3600  -26.6260   20.1360 O   0  0  0  0  0  0  0  0  0  0  0  0
  -24.5930  -31.9030   23.2450 C   0  0  0  0  0  0  0  0  0  0  0  0
  -27.2040  -27.4060   20.1410 C   0  0  0  0  0  0  0  0  0  0  0  0
  -23.3820  -30.5020   21.6100 C   0  0  0  0  0  3  0  0  0  0  0  0
  -24.8240  -28.9640   20.1830 C   0  0  0  0  0  0  0  0  0  0  0  0
  -25.9170  -30.8320   21.4210 C   0  0  0  0  0  2  0  0  0  0  0  0
  -25.9940  -29.4630   20.7680 C   0  0  0  0  0  0  0  0  0  0  0  0
  -27.1880  -28.6930   20.7430 C   0  0  0  0  0  3  0  0  0  0  0  0
  -26.0020  -26.9380   19.5560 C   0  0  0  0  0  3  0  0  0  0  0  0
  -24.8220  -27.7000   19.5790 C   0  0  0  0  0  3  0  0  0  0  0  0
  -23.5910  -29.8360   20.2300 C   0  0  0  0  0  2  0  0  0  0  0  0
  -24.6490  -31.0920   22.1500 N   0  0  0  0  0  0  0  0  0  0  0  0
  -23.5080  -32.2020   23.7630 O   0  0  0  0  0  0  0  0  0  0  0  0
  -22.7220  -29.4810   22.5680 C   0  0  0  0  0  0  0  0  0  0  0  0
  -21.3970  -29.3010   22.4340 N   0  0  0  0  0  0  0  0  0  0  0  0
  -23.3990  -28.8560   23.3880 O   0  0  0  0  0  0  0  0  0  0  0  0
  -20.9120  -29.8620   21.7470 H   0  0  0  0  0  0  0  0  0  0  0  0
  -18.0170  -28.1060   22.9120 C   0  0  0  0  0  0  0  0  0  0  0  0
  -20.5720  -28.3630   23.1980 C   0  0  0  0  0  3  0  0  0  0  0  0
  -20.6780  -26.9320   22.6220 C   0  0  0  0  0  2  0  0  0  0  0  0
  -19.5820  -26.6100   21.6010 C   0  0  0  0  0  2  0  0  0  0  0  0
  -18.1970  -26.7560   22.2390 C   0  0  0  0  0  2  0  0  0  0  0  0
  -19.1330  -28.8680   23.3470 C   0  0  0  0  0  0  0  0  0  0  0  0
  -18.9140  -30.1300   23.9380 C   0  0  0  0  0  3  0  0  0  0  0  0
  -17.6110  -30.6350   24.0970 C   0  0  0  0  0  3  0  0  0  0  0  0
  -16.5070  -29.8710   23.6790 C   0  0  0  0  0  3  0  0  0  0  0  0
  -16.7110  -28.6080   23.0930 C   0  0  0  0  0  3  0  0  0  0  0  0
  -25.8820  -32.5190   23.8730 C   0  0  0  0  0  3  0  0  0  0  0  0
  -25.5850  -33.9170   24.2060 N   0  0  0  0  0  0  0  0  0  0  0  0
  -25.9120  -34.9670   23.4390 C   0  0  0  0  0  0  0  0  0  0  0  0
  -26.5700  -34.8600   22.4010 O   0  0  0  0  0  0  0  0  0  0  0  0
  -25.0030  -34.0740   25.0140 H   0  0  0  0  0  0  0  0  0  0  0  0
  -24.1870  -36.7630   23.0900 C   0  0  0  0  0  1  0  0  0  0  0  0
  -25.4300  -36.3550   23.8980 C   0  0  0  0  0  3  0  0  0  0  0  0
  -27.5720  -37.2340   24.7170 C   0  0  0  0  0  1  0  0  0  0  0  0
  -26.4650  -37.4060   23.7800 N   0  0  0  0  0  0  0  0  0  0  0  0
  -26.0620  -38.3270   23.9310 H   0  0  0  0  0  0  0  0  0  0  0  0
  -26.3900  -31.7420   25.1490 C   0  0  1  0  0  0  0  0  0  0  0  0
  -25.2900  -31.5100   26.2110 C   0  0  0  0  0  1  0  0  0  0  0  0
  -26.9670  -30.3620   24.7570 C   0  0  0  0  0  1  0  0  0  0  0  0
  -27.5430  -32.5280   25.8160 C   0  0  0  0  0  1  0  0  0  0  0  0
  -29.3170  -18.4750   20.7550 C   0  0  0  0  0  2  0  0  0  0  0  0
  -31.1130  -17.5370   22.2480 C   0  0  0  0  0  1  0  0  0  0  0  0
  -31.5230  -17.5910   19.7980 C   0  0  0  0  0  1  0  0  0  0  0  0
  -30.4340  -17.3500   20.8750 C   0  0  2  0  0  0  0  0  0  0  0  0
  -29.7870  -15.8900   20.8400 C   0  0  0  0  0  2  0  0  0  0  0  0
  -30.6060  -14.6030   20.4530 C   0  0  0  0  0  0  0  0  0  0  0  0
  -30.3670  -12.4080   19.3310 C   0  0  0  0  0  2  0  0  0  0  0  0
  -29.4250  -12.5770   18.1190 C   0  0  0  0  0  2  0  0  0  0  0  0
  -27.9510  -12.4090   18.5390 C   0  0  0  0  0  2  0  0  0  0  0  0
  -27.5890  -13.2520   19.7920 C   0  0  0  0  0  3  0  0  0  0  0  0
  -28.6460  -13.0800   20.9050 C   0  0  0  0  0  2  0  0  0  0  0  0
  -29.9670  -13.4000   20.3450 N   0  0  0  0  0  0  0  0  0  0  0  0
  -31.7730  -14.7200   20.0770 O   0  0  0  0  0  0  0  0  0  0  0  0
  -25.1910  -13.8330   20.5070 C   0  0  0  0  0  0  0  0  0  0  0  0
  -24.1300  -13.0500   20.8760 C   0  0  0  0  0  0  0  0  0  0  0  0
  -24.6070  -11.7040   20.8490 C   0  0  0  0  0  0  0  0  0  0  0  0
  -26.2440  -12.9620   20.2750 N   0  0  0  0  0  0  0  0  0  0  0  0
  -25.8980  -11.6760   20.5430 N   0  0  0  0  0  0  0  0  0  0  0  0
  -23.8950  -10.4350   21.0410 C   0  0  0  0  0  0  0  0  0  0  0  0
  -24.3390   -9.4750   21.9790 C   0  0  0  0  0  3  0  0  0  0  0  0
  -23.6290   -8.2690   22.1580 C   0  0  0  0  0  3  0  0  0  0  0  0
  -22.4600   -8.0140   21.4010 C   0  0  0  0  0  0  0  0  0  0  0  0
  -22.0360   -8.9630   20.4550 C   0  0  0  0  0  3  0  0  0  0  0  0
  -22.7450  -10.1610   20.2730 C   0  0  0  0  0  3  0  0  0  0  0  0
  -21.7200   -6.8600   21.4920 O   0  0  0  0  0  0  0  0  0  0  0  0
  -21.6840   -6.1160   22.6440 C   0  0  0  0  0  0  0  0  0  0  0  0
  -21.2480   -6.6620   23.8710 C   0  0  0  0  0  3  0  0  0  0  0  0
  -21.1600   -5.8430   25.0150 C   0  0  0  0  0  3  0  0  0  0  0  0
  -21.4990   -4.4790   24.9320 C   0  0  0  0  0  0  0  0  0  0  0  0
  -21.9280   -3.9320   23.7090 C   0  0  0  0  0  3  0  0  0  0  0  0
  -22.0190   -4.7490   22.5690 C   0  0  0  0  0  0  0  0  0  0  0  0
  -22.4130   -4.2130   21.3880 F   0  0  0  0  0  0  0  0  0  0  0  0
  -21.4080   -3.6890   26.0270 F   0  0  0  0  0  0  0  0  0  0  0  0
  -22.7280  -13.5130   21.1430 C   0  0  0  0  0  0  0  0  0  0  0  0
  -22.0030  -12.8080   22.0050 N   0  0  0  0  0  0  0  0  0  0  0  0
  -22.2800  -14.5330   20.6200 O   0  0  0  0  0  0  0  0  0  0  0  0
  -22.3810  -11.9850   22.4510 H   0  0  0  0  0  0  0  0  0  0  0  0
  -21.0600  -13.0950   22.2230 H   0  0  0  0  0  0  0  0  0  0  0  0
  -25.3420  -15.2040   20.3300 N   0  0  0  0  0  0  0  0  0  0  0  0
  -24.5660  -15.8500   20.4410 H   0  0  0  0  0  0  0  0  0  0  0  0
  -26.1910  -15.6560   20.0140 H   0  0  0  0  0  0  0  0  0  0  0  0
  1  2  2  0
  1  3  1  0
  2  4  1  0
  3  5  2  0
  4  6  2  0
  5  6  1  0
  5  7  1  0
  6 53  1  0
  7  8  1  0
 10  8  1  0
 10  9  1  0
 11 12  1  0
 11 10  1  0
 12 14  1  0
 13 24  2  0
 14 19  1  0
 15 23  1  0
 15 25  1  0
 16 22  1  0
 16 18  1  0
 17 23  1  0
 18 17  1  0
 19 18  2  0
 20 21  1  0
 20 14  2  0
 21 16  2  0
 22 15  1  0
 23 13  1  0
 25 27  2  0
 26 25  1  0
 28 26  1  0
 29 38  2  0
 29 34  1  0
 30 26  1  0
 30 34  1  0
 31 30  1  0
 32 33  1  0
 32 31  1  0
 33 29  1  0
 34 35  2  0
 35 36  1  0
 37 36  2  0
 38 37  1  0
 39 13  1  0
 39 40  1  0
 39 49  1  0
 40 43  1  0
 41 45  1  0
 41 40  1  0
 42 41  2  0
 45 44  1  0
 47 45  1  0
 47 48  1  0
 47 46  1  0
 49 52  1  1
 49 50  1  0
 51 49  1  0
 53 56  1  0
 56 55  1  6
 56 54  1  0
 57 56  1  0
 58 57  1  0
 59 64  1  0
 60 61  1  0
 60 59  1  0
 62 61  1  0
 62 69  1  0
 62 63  1  0
 64 58  1  0
 64 63  1  0
 65 58  2  0
 66 67  2  0
 67 86  1  0
 68 67  1  0
 68 71  1  0
 69 66  1  0
 69 70  1  0
 70 68  2  0
 71 72  1  0
 72 73  2  0
 74 77  1  0
 74 73  1  0
 75 74  2  0
 76 75  1  0
 76 71  2  0
 77 78  1  0
 78 79  1  0
 79 80  2  0
 81 80  1  0
 81 85  1  0
 82 81  2  0
 83 78  2  0
 83 82  1  0
 84 83  1  0
 86 87  1  0
 87 90  1  0
 87 89  1  0
 88 86  2  0
 91 92  1  0
 91 66  1  0
 93 91  1  0
M  ISO  4  11 101  12 101  57 100  58 100
M  END
>  <TORSDO>  (56) 
F 23

>  <SCORE>  (56) 
-13.152

>  <name>  (56) 
55

>  <ligand_id>  (56) 
55

>  <original_smiles>  (56) 
[H]c1c([H])c([H])c2c(c1[H])C([H])([H])C([H])([H])C([H])([H])C2([H])N([H])C(=O)C1([H])N(C(=O)C([H])(N([H])C(=O)C([H])(N([H])C([H])([H])[H])C([H])([H])[H])C(C([H])([H])[H])(C([H])([H])[H])C([H])([H])[H])C([H])([H])c2c([H])c(OC([H])([H])C([H])(C([H])([H])[H])C([H])([H])C([H])([H])c3c([H])c([H])c([H])c([H])c3C([H])([H])C(C([H])([H])[H])(C([H])([H])[H])C([H])([H])C(=O)N3C([H])([H])C([H])([H])C([H])([H])C([H])(n4nc(-c5c([H])c([H])c(Oc6c([H])c([H])c(F)c([H])c6F)c([H])c5[H])c(C(=O)N([H])[H])c4N([H])[H])C3([H])[H])c([H])c([H])c2C1([H])[H]

>  <smiles>  (56) 
[H]c1c([H])c([H])c2c(c1[H])C([H])([H])C([H])([H])C([H])([H])C2([H])N([H])C(=O)C1([H])N(C(=O)C([H])(N([H])C(=O)C([H])(N([H])C([H])([H])[H])C([H])([H])[H])C(C([H])([H])[H])(C([H])([H])[H])C([H])([H])[H])C([H])([H])c2c([H])c(OC([H])([H])C([H])(C([H])([H])[H])C([H])([H])C([H])([H])c3c([H])c([H])c([H])c([H])c3C([H])([H])C(C([H])([H])[H])(C([H])([H])[H])C([H])([H])C(=O)N3C([H])([H])C([H])([H])C([H])([H])C([H])(n4nc(-c5c([H])c([H])c(Oc6c([H])c([H])c(F)c([H])c6F)c([H])c5[H])c(C(=O)N([H])[H])c4N([H])[H])C3([H])[H])c([H])c([H])c2C1([H])[H]

$$$$
56:0:0
     RDKit          3D

 91 99  0  0  1  0  0  0  0  0999 V2000
  -28.5560  -22.0970   18.9180 C   0  0  0  0  0  3  0  0  0  0  0  0
  -29.3460  -23.1360   18.5850 C   0  0  0  0  0  3  0  0  0  0  0  0
  -30.3610  -20.3620   18.9030 C   0  0  0  0  0  3  0  0  0  0  0  0
  -28.2090  -19.8200   19.8960 C   0  0  0  0  0  3  0  0  0  0  0  0
  -30.8110  -19.0660   19.1810 C   0  0  0  0  0  3  0  0  0  0  0  0
  -28.6640  -18.5140   20.1810 C   0  0  0  0  0  3  0  0  0  0  0  0
  -29.0460  -20.7480   19.2360 C   0  0  0  0  0  0  0  0  0  0  0  0
  -29.9660  -18.1260   19.8020 C   0  0  0  0  0  0  0  0  0  0  0  0
  -30.5080  -16.7770   19.9630 C   0  0  0  0  0  3  0  0  0  0  0  0
  -29.9800  -15.6870   20.5620 C   0  0  0  0  0  3  0  0  0  0  0  0
  -30.7530  -14.4530   20.4560 C   0  0  0  0  0  0  0  0  0  0  0  0
  -30.3970  -12.2950   19.3850 C   0  0  0  0  0  2  0  0  0  0  0  0
  -29.4870  -12.5400   18.1620 C   0  0  0  0  0  2  0  0  0  0  0  0
  -28.0050  -12.4290   18.5690 C   0  0  0  0  0  2  0  0  0  0  0  0
  -27.6590  -13.2710   19.8270 C   0  0  0  0  0  3  0  0  0  0  0  0
  -28.7010  -13.0620   20.9490 C   0  0  0  0  0  2  0  0  0  0  0  0
  -30.0400  -13.3010   20.3960 N   0  0  0  0  0  0  0  0  0  0  0  0
  -31.9530  -14.4850   20.1680 O   0  0  0  0  0  0  0  0  0  0  0  0
  -25.2570  -13.8810   20.5170 C   0  0  0  0  0  0  0  0  0  0  0  0
  -24.1850  -13.1100   20.8760 C   0  0  0  0  0  0  0  0  0  0  0  0
  -24.6440  -11.7580   20.8530 C   0  0  0  0  0  0  0  0  0  0  0  0
  -26.3020  -12.9990   20.2970 N   0  0  0  0  0  0  0  0  0  0  0  0
  -25.9380  -11.7170   20.5580 N   0  0  0  0  0  0  0  0  0  0  0  0
  -23.9150  -10.4970   21.0360 C   0  0  0  0  0  0  0  0  0  0  0  0
  -24.3240   -9.5370   21.9860 C   0  0  0  0  0  3  0  0  0  0  0  0
  -23.5940   -8.3410   22.1570 C   0  0  0  0  0  3  0  0  0  0  0  0
  -22.4410   -8.0960   21.3750 C   0  0  0  0  0  0  0  0  0  0  0  0
  -22.0510   -9.0450   20.4140 C   0  0  0  0  0  3  0  0  0  0  0  0
  -22.7810  -10.2330   20.2420 C   0  0  0  0  0  3  0  0  0  0  0  0
  -21.6860   -6.9510   21.4530 O   0  0  0  0  0  0  0  0  0  0  0  0
  -21.5990   -6.2240   22.6130 C   0  0  0  0  0  0  0  0  0  0  0  0
  -21.1060   -6.7860   23.8100 C   0  0  0  0  0  3  0  0  0  0  0  0
  -20.9680   -5.9850   24.9600 C   0  0  0  0  0  3  0  0  0  0  0  0
  -21.3130   -4.6210   24.9140 C   0  0  0  0  0  0  0  0  0  0  0  0
  -21.7980   -4.0570   23.7220 C   0  0  0  0  0  3  0  0  0  0  0  0
  -21.9390   -4.8570   22.5730 C   0  0  0  0  0  0  0  0  0  0  0  0
  -22.3880   -4.3030   21.4210 F   0  0  0  0  0  0  0  0  0  0  0  0
  -21.1750   -3.8480   26.0180 F   0  0  0  0  0  0  0  0  0  0  0  0
  -22.7860  -13.5910   21.1330 C   0  0  0  0  0  0  0  0  0  0  0  0
  -22.0460  -12.8920   21.9870 N   0  0  0  0  0  0  0  0  0  0  0  0
  -22.3570  -14.6200   20.6120 O   0  0  0  0  0  0  0  0  0  0  0  0
  -22.4050  -12.0590   22.4290 H   0  0  0  0  0  0  0  0  0  0  0  0
  -21.1060  -13.1930   22.2000 H   0  0  0  0  0  0  0  0  0  0  0  0
  -25.4260  -15.2500   20.3370 N   0  0  0  0  0  0  0  0  0  0  0  0
  -24.6590  -15.9090   20.4260 H   0  0  0  0  0  0  0  0  0  0  0  0
  -26.2790  -15.6810   20.0010 H   0  0  0  0  0  0  0  0  0  0  0  0
  -28.7990  -24.4430   18.2240 C   0  0  0  0  0  0  0  0  0  0  0  0
  -27.6730  -24.5890   17.7390 O   0  0  0  0  0  0  0  0  0  0  0  0
  -29.7250  -25.6410   18.4330 C   0  0  0  0  0  2  0  0  0  0  0  0
  -28.9840  -26.9340   18.7840 C   0  0  0  0  0  2  0  0  0  0  0  0
  -28.3890  -26.8230   20.0760 O   0  0  0  0  0  0  0  0  0  0  0  0
  -24.5710  -31.9210   23.2480 C   0  0  0  0  0  0  0  0  0  0  0  0
  -27.2070  -27.5050   20.1650 C   0  0  0  0  0  0  0  0  0  0  0  0
  -23.3570  -30.5080   21.6190 C   0  0  0  0  0  3  0  0  0  0  0  0
  -24.8040  -28.9650   20.2020 C   0  0  0  0  0  0  0  0  0  0  0  0
  -25.8770  -30.8750   21.4090 C   0  0  0  0  0  2  0  0  0  0  0  0
  -25.9600  -29.5010   20.7840 C   0  0  0  0  0  0  0  0  0  0  0  0
  -27.1670  -28.7730   20.7740 C   0  0  0  0  0  3  0  0  0  0  0  0
  -26.0350  -26.9590   19.6050 C   0  0  0  0  0  3  0  0  0  0  0  0
  -24.8310  -27.6870   19.6180 C   0  0  0  0  0  3  0  0  0  0  0  0
  -23.5600  -29.8220   20.2420 C   0  0  0  0  0  2  0  0  0  0  0  0
  -24.6210  -31.1130   22.1520 N   0  0  0  0  0  0  0  0  0  0  0  0
  -23.4880  -32.2180   23.7720 O   0  0  0  0  0  0  0  0  0  0  0  0
  -22.7130  -29.4890   22.5850 C   0  0  0  0  0  0  0  0  0  0  0  0
  -21.3900  -29.2970   22.4530 N   0  0  0  0  0  0  0  0  0  0  0  0
  -23.3980  -28.8720   23.4050 O   0  0  0  0  0  0  0  0  0  0  0  0
  -20.8990  -29.8470   21.7620 H   0  0  0  0  0  0  0  0  0  0  0  0
  -18.0160  -28.1110   22.9590 C   0  0  0  0  0  0  0  0  0  0  0  0
  -20.5750  -28.3600   23.2260 C   0  0  0  0  0  3  0  0  0  0  0  0
  -20.6730  -26.9300   22.6460 C   0  0  0  0  0  2  0  0  0  0  0  0
  -19.5670  -26.6110   21.6350 C   0  0  0  0  0  2  0  0  0  0  0  0
  -18.1880  -26.7610   22.2830 C   0  0  0  0  0  2  0  0  0  0  0  0
  -19.1380  -28.8690   23.3870 C   0  0  0  0  0  0  0  0  0  0  0  0
  -18.9260  -30.1330   23.9780 C   0  0  0  0  0  3  0  0  0  0  0  0
  -17.6240  -30.6400   24.1460 C   0  0  0  0  0  3  0  0  0  0  0  0
  -16.5160  -29.8780   23.7350 C   0  0  0  0  0  3  0  0  0  0  0  0
  -16.7140  -28.6160   23.1470 C   0  0  0  0  0  3  0  0  0  0  0  0
  -25.8640  -32.5410   23.8670 C   0  0  0  0  0  3  0  0  0  0  0  0
  -25.5650  -33.9420   24.1920 N   0  0  0  0  0  0  0  0  0  0  0  0
  -25.9030  -34.9870   23.4260 C   0  0  0  0  0  0  0  0  0  0  0  0
  -26.5740  -34.8740   22.3960 O   0  0  0  0  0  0  0  0  0  0  0  0
  -24.9690  -34.1040   24.9910 H   0  0  0  0  0  0  0  0  0  0  0  0
  -24.1930  -36.7900   23.0440 C   0  0  0  0  0  1  0  0  0  0  0  0
  -25.4200  -36.3790   23.8730 C   0  0  0  0  0  3  0  0  0  0  0  0
  -27.5470  -37.2510   24.7340 C   0  0  0  0  0  1  0  0  0  0  0  0
  -26.4620  -37.4240   23.7730 N   0  0  0  0  0  0  0  0  0  0  0  0
  -26.0610  -38.3470   23.9080 H   0  0  0  0  0  0  0  0  0  0  0  0
  -26.3830  -31.7700   25.1410 C   0  0  1  0  0  0  0  0  0  0  0  0
  -25.2800  -31.4900   26.1880 C   0  0  0  0  0  1  0  0  0  0  0  0
  -27.0100  -30.4130   24.7420 C   0  0  0  0  0  1  0  0  0  0  0  0
  -27.5010  -32.5870   25.8310 C   0  0  0  0  0  1  0  0  0  0  0  0
  1  7  1  0
  2  1  2  0
  3  5  2  0
  3  7  1  0
  4  6  1  0
  5  8  1  0
  7  4  2  0
  8  9  1  0
  8  6  2  0
  9 10  2  0
 11 10  1  0
 12 17  1  0
 13 14  1  0
 13 12  1  0
 15 14  1  0
 15 22  1  0
 15 16  1  0
 17 11  1  0
 17 16  1  0
 18 11  2  0
 19 20  2  0
 20 39  1  0
 21 20  1  0
 21 24  1  0
 22 19  1  0
 22 23  1  0
 23 21  2  0
 24 25  1  0
 25 26  2  0
 27 30  1  0
 27 26  1  0
 28 27  2  0
 29 28  1  0
 29 24  2  0
 30 31  1  0
 31 32  1  0
 32 33  2  0
 34 33  1  0
 34 38  1  0
 35 34  2  0
 36 31  2  0
 36 35  1  0
 37 36  1  0
 39 40  1  0
 40 43  1  0
 40 42  1  0
 41 39  2  0
 44 45  1  0
 44 19  1  0
 46 44  1  0
 47 49  1  0
 47  2  1  0
 48 47  2  0
 49 50  1  0
 50 51  1  0
 51 53  1  0
 52 63  2  0
 53 58  1  0
 54 62  1  0
 54 64  1  0
 55 61  1  0
 55 57  1  0
 56 62  1  0
 57 56  1  0
 58 57  2  0
 59 60  1  0
 59 53  2  0
 60 55  2  0
 61 54  1  0
 62 52  1  0
 64 66  2  0
 65 64  1  0
 67 65  1  0
 68 77  2  0
 68 73  1  0
 69 65  1  0
 69 73  1  0
 70 69  1  0
 71 72  1  0
 71 70  1  0
 72 68  1  0
 73 74  2  0
 74 75  1  0
 76 75  2  0
 77 76  1  0
 78 52  1  0
 78 79  1  0
 78 88  1  0
 79 82  1  0
 80 84  1  0
 80 79  1  0
 81 80  2  0
 84 83  1  0
 86 84  1  0
 86 87  1  0
 86 85  1  0
 88 91  1  1
 88 89  1  0
 90 88  1  0
M  ISO  4  10 100  11 100  50 101  51 101
M  END
>  <TORSDO>  (57) 
F 21

>  <SCORE>  (57) 
-13.536

>  <name>  (57) 
56

>  <ligand_id>  (57) 
56

>  <original_smiles>  (57) 
[H]C(C(=O)N1C([H])([H])C([H])([H])C([H])([H])C([H])(n2nc(-c3c([H])c([H])c(Oc4c([H])c([H])c(F)c([H])c4F)c([H])c3[H])c(C(=O)N([H])[H])c2N([H])[H])C1([H])[H])=C([H])c1c([H])c([H])c(C([H])=C([H])C(=O)C([H])([H])C([H])([H])Oc2c([H])c([H])c3c(c2[H])C([H])([H])N(C(=O)C([H])(N([H])C(=O)C([H])(N([H])C([H])([H])[H])C([H])([H])[H])C(C([H])([H])[H])(C([H])([H])[H])C([H])([H])[H])C([H])(C(=O)N([H])C2([H])c4c([H])c([H])c([H])c([H])c4C([H])([H])C([H])([H])C2([H])[H])C3([H])[H])c([H])c1[H]

>  <smiles>  (57) 
[H]C(C(=O)N1C([H])([H])C([H])([H])C([H])([H])C([H])(n2nc(-c3c([H])c([H])c(Oc4c([H])c([H])c(F)c([H])c4F)c([H])c3[H])c(C(=O)N([H])[H])c2N([H])[H])C1([H])[H])=C([H])c1c([H])c([H])c(C([H])=C([H])C(=O)C([H])([H])C([H])([H])Oc2c([H])c([H])c3c(c2[H])C([H])([H])N(C(=O)C([H])(N([H])C(=O)C([H])(N([H])C([H])([H])[H])C([H])([H])[H])C(C([H])([H])[H])(C([H])([H])[H])C([H])([H])[H])C([H])(C(=O)N([H])C2([H])c4c([H])c([H])c([H])c([H])c4C([H])([H])C([H])([H])C2([H])[H])C3([H])[H])c([H])c1[H]

$$$$
57:0:0
     RDKit          3D

 89 96  0  0  1  0  0  0  0  0999 V2000
  -29.8440  -21.8190   20.4110 C   0  0  0  0  0  2  0  0  0  0  0  0
  -29.2490  -20.4090   20.0990 C   0  0  0  0  0  2  0  0  0  0  0  0
  -29.6240  -17.9940   20.6880 C   0  0  0  0  0  0  0  0  0  0  0  0
  -30.0600  -19.2700   20.5820 N   0  0  0  0  0  0  0  0  0  0  0  0
  -28.4800  -17.6690   20.3650 O   0  0  0  0  0  0  0  0  0  0  0  0
  -31.0190  -19.4600   20.8420 H   0  0  0  0  0  0  0  0  0  0  0  0
  -30.5800  -16.9160   21.2480 C   0  0  0  0  0  2  0  0  0  0  0  0
  -30.6910  -14.5100   20.5050 C   0  0  0  0  0  0  0  0  0  0  0  0
  -30.3530  -12.3600   19.3320 C   0  0  0  0  0  2  0  0  0  0  0  0
  -29.4110  -12.5910   18.1330 C   0  0  0  0  0  2  0  0  0  0  0  0
  -27.9430  -12.4330   18.5640 C   0  0  0  0  0  2  0  0  0  0  0  0
  -27.6070  -13.2600   19.8350 C   0  0  0  0  0  3  0  0  0  0  0  0
  -28.6670  -13.0560   20.9410 C   0  0  0  0  0  2  0  0  0  0  0  0
  -29.9910  -13.3450   20.3670 N   0  0  0  0  0  0  0  0  0  0  0  0
  -31.8110  -14.6730   20.0160 O   0  0  0  0  0  0  0  0  0  0  0  0
  -30.0600  -15.5340   21.1080 N   0  0  0  0  0  0  0  0  0  0  0  0
  -29.1080  -15.3780   21.4040 H   0  0  0  0  0  0  0  0  0  0  0  0
  -25.2020  -13.8460   20.5380 C   0  0  0  0  0  0  0  0  0  0  0  0
  -24.1380  -13.0660   20.9040 C   0  0  0  0  0  0  0  0  0  0  0  0
  -24.6090  -11.7190   20.8820 C   0  0  0  0  0  0  0  0  0  0  0  0
  -26.2560  -12.9740   20.3130 N   0  0  0  0  0  0  0  0  0  0  0  0
  -25.9030  -11.6880   20.5800 N   0  0  0  0  0  0  0  0  0  0  0  0
  -23.8900  -10.4510   21.0780 C   0  0  0  0  0  0  0  0  0  0  0  0
  -24.3420   -9.4770   21.9940 C   0  0  0  0  0  3  0  0  0  0  0  0
  -23.6280   -8.2730   22.1720 C   0  0  0  0  0  3  0  0  0  0  0  0
  -22.4470   -8.0330   21.4310 C   0  0  0  0  0  0  0  0  0  0  0  0
  -22.0130   -8.9960   20.5010 C   0  0  0  0  0  3  0  0  0  0  0  0
  -22.7250  -10.1940   20.3240 C   0  0  0  0  0  3  0  0  0  0  0  0
  -21.7020   -6.8790   21.5180 O   0  0  0  0  0  0  0  0  0  0  0  0
  -21.6700   -6.1310   22.6670 C   0  0  0  0  0  0  0  0  0  0  0  0
  -21.2510   -6.6740   23.9020 C   0  0  0  0  0  3  0  0  0  0  0  0
  -21.1680   -5.8490   25.0390 C   0  0  0  0  0  3  0  0  0  0  0  0
  -21.4910   -4.4820   24.9450 C   0  0  0  0  0  0  0  0  0  0  0  0
  -21.9000   -3.9360   23.7160 C   0  0  0  0  0  3  0  0  0  0  0  0
  -21.9860   -4.7590   22.5770 C   0  0  0  0  0  0  0  0  0  0  0  0
  -22.3610   -4.2230   21.3910 F   0  0  0  0  0  0  0  0  0  0  0  0
  -21.4080   -3.6900   26.0400 F   0  0  0  0  0  0  0  0  0  0  0  0
  -22.7360  -13.5370   21.1700 C   0  0  0  0  0  0  0  0  0  0  0  0
  -22.0150  -12.8660   22.0580 N   0  0  0  0  0  0  0  0  0  0  0  0
  -22.2890  -14.5480   20.6320 O   0  0  0  0  0  0  0  0  0  0  0  0
  -21.0800  -13.1840   22.2730 H   0  0  0  0  0  0  0  0  0  0  0  0
  -22.3990  -12.0780   22.5540 H   0  0  0  0  0  0  0  0  0  0  0  0
  -25.3600  -15.2190   20.3540 N   0  0  0  0  0  0  0  0  0  0  0  0
  -24.5870  -15.8700   20.4450 H   0  0  0  0  0  0  0  0  0  0  0  0
  -26.2280  -15.6730   20.0950 H   0  0  0  0  0  0  0  0  0  0  0  0
  -29.0190  -22.8720   19.8670 O   0  0  0  0  0  0  0  0  0  0  0  0
  -29.3380  -24.2220   20.2750 C   0  0  0  0  0  2  0  0  0  0  0  0
  -28.2640  -25.2280   19.7520 C   0  0  0  0  0  2  0  0  0  0  0  0
  -28.3620  -26.6100   20.2080 O   0  0  0  0  0  0  0  0  0  0  0  0
  -24.5960  -31.8980   23.2820 C   0  0  0  0  0  0  0  0  0  0  0  0
  -27.2090  -27.3950   20.1790 C   0  0  0  0  0  0  0  0  0  0  0  0
  -23.3830  -30.4960   21.6530 C   0  0  0  0  0  3  0  0  0  0  0  0
  -24.8260  -28.9580   20.2190 C   0  0  0  0  0  0  0  0  0  0  0  0
  -25.9180  -30.8260   21.4580 C   0  0  0  0  0  2  0  0  0  0  0  0
  -25.9950  -29.4530   20.8100 C   0  0  0  0  0  0  0  0  0  0  0  0
  -27.1850  -28.6780   20.7950 C   0  0  0  0  0  3  0  0  0  0  0  0
  -26.0170  -26.9470   19.5620 C   0  0  0  0  0  3  0  0  0  0  0  0
  -24.8350  -27.7050   19.5920 C   0  0  0  0  0  3  0  0  0  0  0  0
  -23.5870  -29.8220   20.2730 C   0  0  0  0  0  2  0  0  0  0  0  0
  -24.6510  -31.0870   22.1900 N   0  0  0  0  0  0  0  0  0  0  0  0
  -23.5110  -32.1970   23.8010 O   0  0  0  0  0  0  0  0  0  0  0  0
  -22.7260  -29.4760   22.6110 C   0  0  0  0  0  0  0  0  0  0  0  0
  -21.4010  -29.2870   22.4780 N   0  0  0  0  0  0  0  0  0  0  0  0
  -23.4050  -28.8520   23.4320 O   0  0  0  0  0  0  0  0  0  0  0  0
  -20.9120  -29.8410   21.7870 H   0  0  0  0  0  0  0  0  0  0  0  0
  -18.0290  -28.0720   22.9540 C   0  0  0  0  0  0  0  0  0  0  0  0
  -20.5830  -28.3500   23.2480 C   0  0  0  0  0  3  0  0  0  0  0  0
  -20.7000  -26.9150   22.6830 C   0  0  0  0  0  2  0  0  0  0  0  0
  -19.6120  -26.5780   21.6610 C   0  0  0  0  0  2  0  0  0  0  0  0
  -18.2220  -26.7180   22.2900 C   0  0  0  0  0  2  0  0  0  0  0  0
  -19.1380  -28.8440   23.3910 C   0  0  0  0  0  0  0  0  0  0  0  0
  -18.9050  -30.1090   23.9710 C   0  0  0  0  0  3  0  0  0  0  0  0
  -17.5960  -30.6040   24.1190 C   0  0  0  0  0  3  0  0  0  0  0  0
  -16.5010  -29.8280   23.7010 C   0  0  0  0  0  3  0  0  0  0  0  0
  -16.7180  -28.5630   23.1250 C   0  0  0  0  0  3  0  0  0  0  0  0
  -25.8860  -32.5140   23.9090 C   0  0  0  0  0  3  0  0  0  0  0  0
  -25.5870  -33.9160   24.2330 N   0  0  0  0  0  0  0  0  0  0  0  0
  -25.9120  -34.9600   23.4600 C   0  0  0  0  0  0  0  0  0  0  0  0
  -26.5680  -34.8470   22.4220 O   0  0  0  0  0  0  0  0  0  0  0  0
  -25.0050  -34.0810   25.0410 H   0  0  0  0  0  0  0  0  0  0  0  0
  -24.1800  -36.7530   23.1230 C   0  0  0  0  0  1  0  0  0  0  0  0
  -25.4340  -36.3530   23.9140 C   0  0  0  0  0  3  0  0  0  0  0  0
  -27.5850  -37.2440   24.6990 C   0  0  0  0  0  1  0  0  0  0  0  0
  -26.4660  -37.4020   23.7720 N   0  0  0  0  0  0  0  0  0  0  0  0
  -26.0630  -38.3230   23.9230 H   0  0  0  0  0  0  0  0  0  0  0  0
  -26.3950  -31.7420   25.1890 C   0  0  1  0  0  0  0  0  0  0  0  0
  -25.2970  -31.5220   26.2520 C   0  0  0  0  0  1  0  0  0  0  0  0
  -26.9690  -30.3600   24.8050 C   0  0  0  0  0  1  0  0  0  0  0  0
  -27.5500  -32.5310   25.8530 C   0  0  0  0  0  1  0  0  0  0  0  0
  2  1  1  0
  2  4  1  0
  3  7  1  0
  4  3  1  0
  4  6  1  0
  5  3  2  0
  8 16  1  0
  9 14  1  0
 10 11  1  0
 10  9  1  0
 12 11  1  0
 12 21  1  0
 12 13  1  0
 14  8  1  0
 14 13  1  0
 15  8  2  0
 16  7  1  0
 16 17  1  0
 18 19  2  0
 19 38  1  0
 20 19  1  0
 20 23  1  0
 21 18  1  0
 21 22  1  0
 22 20  2  0
 23 24  1  0
 24 25  2  0
 26 29  1  0
 26 25  1  0
 27 26  2  0
 28 27  1  0
 28 23  2  0
 29 30  1  0
 30 31  1  0
 31 32  2  0
 33 32  1  0
 33 37  1  0
 34 33  2  0
 35 30  2  0
 35 34  1  0
 36 35  1  0
 38 39  1  0
 39 41  1  0
 39 42  1  0
 40 38  2  0
 43 44  1  0
 43 18  1  0
 45 43  1  0
 46 47  1  0
 46  1  1  0
 48 49  1  0
 48 47  1  0
 50 61  2  0
 51 49  1  0
 51 56  1  0
 52 60  1  0
 52 62  1  0
 53 59  1  0
 53 55  1  0
 54 60  1  0
 55 54  1  0
 56 55  2  0
 57 58  1  0
 57 51  2  0
 58 53  2  0
 59 52  1  0
 60 50  1  0
 62 64  2  0
 63 62  1  0
 65 63  1  0
 66 75  2  0
 66 71  1  0
 67 63  1  0
 67 71  1  0
 68 67  1  0
 69 70  1  0
 69 68  1  0
 70 66  1  0
 71 72  2  0
 72 73  1  0
 74 73  2  0
 75 74  1  0
 76 50  1  0
 76 77  1  0
 76 86  1  0
 77 80  1  0
 78 82  1  0
 78 77  1  0
 79 78  2  0
 82 81  1  0
 84 82  1  0
 84 85  1  0
 84 83  1  0
 86 89  1  1
 86 87  1  0
 88 86  1  0
M  ISO  4   8 100  16 100  48 101  49 101
M  END
>  <TORSDO>  (58) 
F 22

>  <SCORE>  (58) 
-13.122

>  <name>  (58) 
57

>  <ligand_id>  (58) 
57

>  <original_smiles>  (58) 
[H]c1c([H])c([H])c2c(c1[H])C([H])([H])C([H])([H])C([H])([H])C2([H])N([H])C(=O)C1([H])N(C(=O)C([H])(N([H])C(=O)C([H])(N([H])C([H])([H])[H])C([H])([H])[H])C(C([H])([H])[H])(C([H])([H])[H])C([H])([H])[H])C([H])([H])c2c([H])c(OC([H])([H])C([H])([H])OC([H])([H])C([H])([H])N([H])C(=O)C([H])([H])N([H])C(=O)N3C([H])([H])C([H])([H])C([H])([H])C([H])(n4nc(-c5c([H])c([H])c(Oc6c([H])c([H])c(F)c([H])c6F)c([H])c5[H])c(C(=O)N([H])[H])c4N([H])[H])C3([H])[H])c([H])c([H])c2C1([H])[H]

>  <smiles>  (58) 
[H]c1c([H])c([H])c2c(c1[H])C([H])([H])C([H])([H])C([H])([H])C2([H])N([H])C(=O)C1([H])N(C(=O)C([H])(N([H])C(=O)C([H])(N([H])C([H])([H])[H])C([H])([H])[H])C(C([H])([H])[H])(C([H])([H])[H])C([H])([H])[H])C([H])([H])c2c([H])c(OC([H])([H])C([H])([H])OC([H])([H])C([H])([H])N([H])C(=O)C([H])([H])N([H])C(=O)N3C([H])([H])C([H])([H])C([H])([H])C([H])(n4nc(-c5c([H])c([H])c(Oc6c([H])c([H])c(F)c([H])c6F)c([H])c5[H])c(C(=O)N([H])[H])c4N([H])[H])C3([H])[H])c([H])c([H])c2C1([H])[H]

$$$$
58:0:0
     RDKit          3D

 91 99  0  0  1  0  0  0  0  0999 V2000
  -30.2970  -22.4210   19.1950 C   0  0  0  0  0  1  0  0  0  0  0  0
  -29.0320  -22.3970   19.9700 N   0  0  1  0  0  4  0  0  0  0  0  0
  -28.3260  -22.2580   19.2610 H   0  0  0  0  0  0  0  0  0  0  0  0
  -28.8550  -21.1320   20.8430 C   0  0  0  0  0  2  0  0  0  0  0  0
  -32.0470  -18.9440   21.2710 C   0  0  0  0  0  3  0  0  0  0  0  0
  -31.1630  -20.0320   21.1430 C   0  0  0  0  0  3  0  0  0  0  0  0
  -31.6120  -17.6180   21.0810 C   0  0  0  0  0  3  0  0  0  0  0  0
  -29.3840  -18.4650   20.6030 C   0  0  0  0  0  3  0  0  0  0  0  0
  -29.8090  -19.8490   20.7930 C   0  0  0  0  0  0  0  0  0  0  0  0
  -30.2710  -17.3150   20.7440 C   0  0  0  0  0  0  0  0  0  0  0  0
  -30.5830  -14.7420   20.3580 C   0  0  0  0  0  0  0  0  0  0  0  0
  -30.3180  -12.4890   19.3100 C   0  0  0  0  0  2  0  0  0  0  0  0
  -29.3610  -12.5920   18.1030 C   0  0  0  0  0  2  0  0  0  0  0  0
  -27.8990  -12.4300   18.5570 C   0  0  0  0  0  2  0  0  0  0  0  0
  -27.5550  -13.3000   19.7950 C   0  0  0  0  0  3  0  0  0  0  0  0
  -28.6340  -13.1950   20.8960 C   0  0  0  0  0  2  0  0  0  0  0  0
  -29.9220  -13.5370   20.2790 N   0  0  0  0  0  0  0  0  0  0  0  0
  -31.7560  -14.8080   19.9830 O   0  0  0  0  0  0  0  0  0  0  0  0
  -29.8500  -15.8920   20.6320 N   0  0  0  0  0  0  0  0  0  0  0  0
  -28.8640  -15.7220   20.7710 H   0  0  0  0  0  0  0  0  0  0  0  0
  -25.1790  -13.8880   20.5650 C   0  0  0  0  0  0  0  0  0  0  0  0
  -24.1200  -13.1120   20.9500 C   0  0  0  0  0  0  0  0  0  0  0  0
  -24.5820  -11.7600   20.9050 C   0  0  0  0  0  0  0  0  0  0  0  0
  -26.2190  -13.0090   20.3080 N   0  0  0  0  0  0  0  0  0  0  0  0
  -25.8670  -11.7250   20.5740 N   0  0  0  0  0  0  0  0  0  0  0  0
  -23.8570  -10.4980   21.1010 C   0  0  0  0  0  0  0  0  0  0  0  0
  -24.3100   -9.5200   22.0140 C   0  0  0  0  0  3  0  0  0  0  0  0
  -23.5850   -8.3230   22.1990 C   0  0  0  0  0  3  0  0  0  0  0  0
  -22.3920   -8.0960   21.4720 C   0  0  0  0  0  0  0  0  0  0  0  0
  -21.9590   -9.0620   20.5470 C   0  0  0  0  0  3  0  0  0  0  0  0
  -22.6840  -10.2500   20.3600 C   0  0  0  0  0  3  0  0  0  0  0  0
  -21.6360   -6.9520   21.5670 O   0  0  0  0  0  0  0  0  0  0  0  0
  -21.6240   -6.1900   22.7080 C   0  0  0  0  0  0  0  0  0  0  0  0
  -21.2490   -6.7270   23.9580 C   0  0  0  0  0  3  0  0  0  0  0  0
  -21.1840   -5.8930   25.0930 C   0  0  0  0  0  3  0  0  0  0  0  0
  -21.4840   -4.5230   24.9760 C   0  0  0  0  0  0  0  0  0  0  0  0
  -21.8530   -3.9850   23.7310 C   0  0  0  0  0  3  0  0  0  0  0  0
  -21.9200   -4.8170   22.6000 C   0  0  0  0  0  0  0  0  0  0  0  0
  -22.2560   -4.2890   21.3980 F   0  0  0  0  0  0  0  0  0  0  0  0
  -21.4140   -3.7190   26.0640 F   0  0  0  0  0  0  0  0  0  0  0  0
  -22.7270  -13.5890   21.2450 C   0  0  0  0  0  0  0  0  0  0  0  0
  -22.0120  -12.8890   22.1190 N   0  0  0  0  0  0  0  0  0  0  0  0
  -22.2830  -14.6170   20.7380 O   0  0  0  0  0  0  0  0  0  0  0  0
  -22.3840  -12.0560   22.5520 H   0  0  0  0  0  0  0  0  0  0  0  0
  -21.0780  -13.1890   22.3590 H   0  0  0  0  0  0  0  0  0  0  0  0
  -25.3400  -15.2590   20.3880 N   0  0  0  0  0  0  0  0  0  0  0  0
  -24.5710  -15.9090   20.5090 H   0  0  0  0  0  0  0  0  0  0  0  0
  -26.1700  -15.6960   20.0110 H   0  0  0  0  0  0  0  0  0  0  0  0
  -28.6920  -23.7700   20.6090 C   0  0  0  0  0  3  0  0  0  0  0  0
  -28.4730  -25.0740   19.6670 C   0  0  0  0  0  3  0  0  0  0  0  0
  -28.3760  -26.4650   20.2320 O   0  0  0  0  0  0  0  0  0  0  0  0
  -24.6370  -31.8950   23.2340 C   0  0  0  0  0  0  0  0  0  0  0  0
  -27.2350  -27.2990   20.1640 C   0  0  0  0  0  0  0  0  0  0  0  0
  -23.4260  -30.4880   21.6100 C   0  0  0  0  0  3  0  0  0  0  0  0
  -24.8680  -28.9350   20.1750 C   0  0  0  0  0  0  0  0  0  0  0  0
  -25.9680  -30.7960   21.4180 C   0  0  0  0  0  2  0  0  0  0  0  0
  -26.0410  -29.4160   20.7660 C   0  0  0  0  0  0  0  0  0  0  0  0
  -27.2220  -28.6090   20.7520 C   0  0  0  0  0  3  0  0  0  0  0  0
  -26.0300  -26.8770   19.5540 C   0  0  0  0  0  3  0  0  0  0  0  0
  -24.8670  -27.6720   19.5610 C   0  0  0  0  0  3  0  0  0  0  0  0
  -23.6330  -29.8110   20.2290 C   0  0  0  0  0  2  0  0  0  0  0  0
  -24.6980  -31.0730   22.1460 N   0  0  0  0  0  0  0  0  0  0  0  0
  -23.5500  -32.2000   23.7450 O   0  0  0  0  0  0  0  0  0  0  0  0
  -22.7680  -29.4730   22.5740 C   0  0  0  0  0  0  0  0  0  0  0  0
  -21.4420  -29.2890   22.4500 N   0  0  0  0  0  0  0  0  0  0  0  0
  -23.4490  -28.8510   23.3940 O   0  0  0  0  0  0  0  0  0  0  0  0
  -20.9500  -29.8430   21.7620 H   0  0  0  0  0  0  0  0  0  0  0  0
  -18.0700  -28.0730   22.9470 C   0  0  0  0  0  0  0  0  0  0  0  0
  -20.6270  -28.3500   23.2230 C   0  0  0  0  0  3  0  0  0  0  0  0
  -20.7390  -26.9160   22.6540 C   0  0  0  0  0  2  0  0  0  0  0  0
  -19.6420  -26.5830   21.6380 C   0  0  0  0  0  2  0  0  0  0  0  0
  -18.2580  -26.7220   22.2770 C   0  0  0  0  0  2  0  0  0  0  0  0
  -19.1830  -28.8430   23.3770 C   0  0  0  0  0  0  0  0  0  0  0  0
  -18.9550  -30.1060   23.9640 C   0  0  0  0  0  3  0  0  0  0  0  0
  -17.6470  -30.5990   24.1270 C   0  0  0  0  0  3  0  0  0  0  0  0
  -16.5470  -29.8250   23.7140 C   0  0  0  0  0  3  0  0  0  0  0  0
  -16.7610  -28.5650   23.1280 C   0  0  0  0  0  3  0  0  0  0  0  0
  -25.9230  -32.5170   23.8630 C   0  0  0  0  0  3  0  0  0  0  0  0
  -26.4390  -31.7430   25.1390 C   0  0  1  0  0  0  0  0  0  0  0  0
  -25.3450  -31.5090   26.2070 C   0  0  0  0  0  1  0  0  0  0  0  0
  -27.0170  -30.3650   24.7460 C   0  0  0  0  0  1  0  0  0  0  0  0
  -27.5930  -32.5340   25.7990 C   0  0  0  0  0  1  0  0  0  0  0  0
  -25.6170  -33.9150   24.1980 N   0  0  0  0  0  0  0  0  0  0  0  0
  -25.9400  -34.9690   23.4360 C   0  0  0  0  0  0  0  0  0  0  0  0
  -26.5950  -34.8660   22.3970 O   0  0  0  0  0  0  0  0  0  0  0  0
  -25.0320  -34.0680   25.0060 H   0  0  0  0  0  0  0  0  0  0  0  0
  -24.2020  -36.7590   23.1090 C   0  0  0  0  0  1  0  0  0  0  0  0
  -25.4580  -36.3570   23.9000 C   0  0  0  0  0  3  0  0  0  0  0  0
  -27.6040  -37.2460   24.6950 C   0  0  0  0  0  1  0  0  0  0  0  0
  -26.4870  -37.4120   23.7690 N   0  0  0  0  0  0  0  0  0  0  0  0
  -26.0820  -38.3320   23.9230 H   0  0  0  0  0  0  0  0  0  0  0  0
  1  2  1  0
  2 49  1  0
  2  4  1  0
  2  3  1  6
  6  5  1  0
  7  5  2  0
  8 10  2  0
  8  9  1  0
  9  4  1  0
  9  6  2  0
 10  7  1  0
 11 19  1  0
 12 17  1  0
 13 14  1  0
 13 12  1  0
 15 14  1  0
 15 24  1  0
 15 16  1  0
 17 11  1  0
 17 16  1  0
 18 11  2  0
 19 10  1  0
 19 20  1  0
 21 22  2  0
 22 41  1  0
 23 22  1  0
 23 26  1  0
 24 21  1  0
 24 25  1  0
 25 23  2  0
 26 27  1  0
 27 28  2  0
 29 32  1  0
 29 28  1  0
 30 29  2  0
 31 30  1  0
 31 26  2  0
 32 33  1  0
 33 34  1  0
 34 35  2  0
 36 35  1  0
 36 40  1  0
 37 36  2  0
 38 33  2  0
 38 37  1  0
 39 38  1  0
 41 42  1  0
 42 45  1  0
 42 44  1  0
 43 41  2  0
 46 47  1  0
 46 21  1  0
 48 46  1  0
 50 51  1  0
 50 49  2  0
 52 63  2  0
 53 51  1  0
 53 58  1  0
 54 62  1  0
 54 64  1  0
 55 61  1  0
 55 57  1  0
 56 62  1  0
 57 56  1  0
 58 57  2  0
 59 60  1  0
 59 53  2  0
 60 55  2  0
 61 54  1  0
 62 52  1  0
 64 66  2  0
 65 64  1  0
 67 65  1  0
 68 77  2  0
 68 73  1  0
 69 65  1  0
 69 73  1  0
 70 69  1  0
 71 72  1  0
 71 70  1  0
 72 68  1  0
 73 74  2  0
 74 75  1  0
 76 75  2  0
 77 76  1  0
 78 52  1  0
 78 83  1  0
 78 79  1  0
 79 82  1  1
 79 80  1  0
 81 79  1  0
 83 86  1  0
 84 88  1  0
 84 83  1  0
 85 84  2  0
 88 87  1  0
 90 88  1  0
 90 91  1  0
 90 89  1  0
M  ISO  4  11 100  19 100  50 101  51 101
M  END
>  <TORSDO>  (59) 
F 20

>  <SCORE>  (59) 
-14.018

>  <name>  (59) 
58

>  <ligand_id>  (59) 
58

>  <original_smiles>  (59) 
[H]c1c([H])c([H])c2c(c1[H])C([H])([H])C([H])([H])C([H])([H])C2([H])N([H])C(=O)C1([H])N(C(=O)C([H])(N([H])C(=O)C([H])(N([H])C([H])([H])[H])C([H])([H])[H])C(C([H])([H])[H])(C([H])([H])[H])C([H])([H])[H])C([H])([H])c2c([H])c(OC([H])([H])C([H])([H])[N+]([H])(C([H])([H])[H])C([H])([H])c3c([H])c([H])c([H])c(N([H])C(=O)N4C([H])([H])C([H])([H])C([H])([H])C([H])(n5nc(-c6c([H])c([H])c(Oc7c([H])c([H])c(F)c([H])c7F)c([H])c6[H])c(C(=O)N([H])[H])c5N([H])[H])C4([H])[H])c3[H])c([H])c([H])c2C1([H])[H]

>  <smiles>  (59) 
[H]c1c([H])c([H])c2c(c1[H])C([H])([H])C([H])([H])C([H])([H])C2([H])N([H])C(=O)C1([H])N(C(=O)C([H])(N([H])C(=O)C([H])(N([H])C([H])([H])[H])C([H])([H])[H])C(C([H])([H])[H])(C([H])([H])[H])C([H])([H])[H])C([H])([H])c2c([H])c(OC([H])([H])C([H])([H])[N+]([H])(C([H])([H])[H])C([H])([H])c3c([H])c([H])c([H])c(N([H])C(=O)N4C([H])([H])C([H])([H])C([H])([H])C([H])(n5nc(-c6c([H])c([H])c(Oc7c([H])c([H])c(F)c([H])c7F)c([H])c6[H])c(C(=O)N([H])[H])c5N([H])[H])C4([H])[H])c3[H])c([H])c([H])c2C1([H])[H]

$$$$
59:0:0
     RDKit          3D

 93102  0  0  1  0  0  0  0  0999 V2000
  -30.4610  -22.8330   20.2760 C   0  0  0  0  0  3  0  0  0  0  0  0
  -30.4030  -24.2530   20.4790 C   0  0  0  0  0  0  0  0  0  0  0  0
  -29.2080  -24.6810   21.0140 C   0  0  0  0  0  0  0  0  0  0  0  0
  -29.3430  -22.1730   20.7210 C   0  0  0  0  0  0  0  0  0  0  0  0
  -31.4850  -25.1540   20.1070 C   0  0  0  0  0  0  0  0  0  0  0  0
  -31.9560  -26.1120   21.2020 C   0  0  0  0  0  2  0  0  0  0  0  0
  -31.0060  -27.2950   21.4660 C   0  0  0  0  0  2  0  0  0  0  0  0
  -29.6960  -26.9090   22.1750 C   0  0  0  0  0  2  0  0  0  0  0  0
  -28.7190  -26.0760   21.3240 C   0  0  0  0  0  3  0  0  0  0  0  0
  -32.0870  -25.1300   19.0280 O   0  0  0  0  0  0  0  0  0  0  0  0
  -28.2040  -23.3070   21.4120 S   0  0  0  0  0  0  0  0  0  0  0  0
  -28.4080  -26.7250   20.0820 O   0  0  0  0  0  0  0  0  0  0  0  0
  -24.6130  -31.8990   23.2030 C   0  0  0  0  0  0  0  0  0  0  0  0
  -27.2560  -27.4810   20.1030 C   0  0  0  0  0  0  0  0  0  0  0  0
  -23.3960  -30.4850   21.5770 C   0  0  0  0  0  3  0  0  0  0  0  0
  -24.8450  -28.9540   20.1390 C   0  0  0  0  0  0  0  0  0  0  0  0
  -25.9160  -30.8620   21.3500 C   0  0  0  0  0  2  0  0  0  0  0  0
  -26.0040  -29.4920   20.7120 C   0  0  0  0  0  0  0  0  0  0  0  0
  -27.2130  -28.7670   20.6880 C   0  0  0  0  0  3  0  0  0  0  0  0
  -26.0870  -26.9540   19.5180 C   0  0  0  0  0  3  0  0  0  0  0  0
  -24.8800  -27.6820   19.5380 C   0  0  0  0  0  3  0  0  0  0  0  0
  -23.5930  -29.8020   20.1970 C   0  0  0  0  0  2  0  0  0  0  0  0
  -24.6610  -31.0940   22.1040 N   0  0  0  0  0  0  0  0  0  0  0  0
  -23.5330  -32.1840   23.7360 O   0  0  0  0  0  0  0  0  0  0  0  0
  -22.7590  -29.4630   22.5450 C   0  0  0  0  0  0  0  0  0  0  0  0
  -21.4340  -29.2790   22.4320 N   0  0  0  0  0  0  0  0  0  0  0  0
  -23.4540  -28.8370   23.3500 O   0  0  0  0  0  0  0  0  0  0  0  0
  -20.9340  -29.8390   21.7550 H   0  0  0  0  0  0  0  0  0  0  0  0
  -18.0670  -28.0760   22.9580 C   0  0  0  0  0  0  0  0  0  0  0  0
  -20.6270  -28.3390   23.2090 C   0  0  0  0  0  3  0  0  0  0  0  0
  -20.7270  -26.9080   22.6310 C   0  0  0  0  0  2  0  0  0  0  0  0
  -19.6170  -26.5840   21.6260 C   0  0  0  0  0  2  0  0  0  0  0  0
  -18.2400  -26.7280   22.2800 C   0  0  0  0  0  2  0  0  0  0  0  0
  -19.1880  -28.8390   23.3790 C   0  0  0  0  0  0  0  0  0  0  0  0
  -18.9700  -30.1030   23.9700 C   0  0  0  0  0  3  0  0  0  0  0  0
  -17.6670  -30.6020   24.1450 C   0  0  0  0  0  3  0  0  0  0  0  0
  -16.5610  -29.8350   23.7400 C   0  0  0  0  0  3  0  0  0  0  0  0
  -16.7620  -28.5730   23.1510 C   0  0  0  0  0  3  0  0  0  0  0  0
  -25.9050  -32.5230   23.8200 C   0  0  0  0  0  3  0  0  0  0  0  0
  -25.5990  -33.9170   24.1670 N   0  0  0  0  0  0  0  0  0  0  0  0
  -25.9230  -34.9750   23.4100 C   0  0  0  0  0  0  0  0  0  0  0  0
  -26.5840  -34.8790   22.3730 O   0  0  0  0  0  0  0  0  0  0  0  0
  -25.0140  -34.0660   24.9760 H   0  0  0  0  0  0  0  0  0  0  0  0
  -24.1900  -36.7640   23.0760 C   0  0  0  0  0  1  0  0  0  0  0  0
  -25.4360  -36.3590   23.8790 C   0  0  0  0  0  3  0  0  0  0  0  0
  -27.5760  -37.2380   24.7020 C   0  0  0  0  0  1  0  0  0  0  0  0
  -26.4660  -37.4140   23.7680 N   0  0  0  0  0  0  0  0  0  0  0  0
  -26.0620  -38.3330   23.9270 H   0  0  0  0  0  0  0  0  0  0  0  0
  -26.4430  -31.7410   25.0810 C   0  0  1  0  0  0  0  0  0  0  0  0
  -25.3650  -31.4890   26.1610 C   0  0  0  0  0  1  0  0  0  0  0  0
  -27.0270  -30.3710   24.6640 C   0  0  0  0  0  1  0  0  0  0  0  0
  -27.6030  -32.5320   25.7340 C   0  0  0  0  0  1  0  0  0  0  0  0
  -28.9890  -20.7100   20.6720 C   0  0  0  0  0  2  0  0  0  0  0  0
  -30.1430  -19.6790   20.7550 C   0  0  0  0  0  2  0  0  0  0  0  0
  -29.5800  -18.2390   20.7970 C   0  0  0  0  0  2  0  0  0  0  0  0
  -30.6210  -17.0960   20.8210 C   0  0  0  0  0  2  0  0  0  0  0  0
  -29.9830  -15.7090   21.1370 C   0  0  0  0  0  2  0  0  0  0  0  0
  -30.6790  -14.4890   20.4910 C   0  0  0  0  0  0  0  0  0  0  0  0
  -30.3660  -12.3480   19.3050 C   0  0  0  0  0  2  0  0  0  0  0  0
  -29.4280  -12.5750   18.1000 C   0  0  0  0  0  2  0  0  0  0  0  0
  -27.9520  -12.4460   18.5220 C   0  0  0  0  0  2  0  0  0  0  0  0
  -27.6140  -13.2710   19.7930 C   0  0  0  0  0  3  0  0  0  0  0  0
  -28.6680  -13.0350   20.9030 C   0  0  0  0  0  2  0  0  0  0  0  0
  -29.9980  -13.3200   20.3430 N   0  0  0  0  0  0  0  0  0  0  0  0
  -31.8070  -14.6500   20.0170 O   0  0  0  0  0  0  0  0  0  0  0  0
  -25.2080  -13.8820   20.4760 C   0  0  0  0  0  0  0  0  0  0  0  0
  -24.1370  -13.1130   20.8410 C   0  0  0  0  0  0  0  0  0  0  0  0
  -24.6010  -11.7610   20.8280 C   0  0  0  0  0  0  0  0  0  0  0  0
  -26.2570  -13.0000   20.2650 N   0  0  0  0  0  0  0  0  0  0  0  0
  -25.8950  -11.7200   20.5340 N   0  0  0  0  0  0  0  0  0  0  0  0
  -23.8750  -10.5010   21.0240 C   0  0  0  0  0  0  0  0  0  0  0  0
  -24.3100   -9.5360   21.9610 C   0  0  0  0  0  3  0  0  0  0  0  0
  -23.5840   -8.3390   22.1460 C   0  0  0  0  0  3  0  0  0  0  0  0
  -22.4120   -8.0980   21.3920 C   0  0  0  0  0  0  0  0  0  0  0  0
  -21.9960   -9.0500   20.4440 C   0  0  0  0  0  3  0  0  0  0  0  0
  -22.7210  -10.2390   20.2590 C   0  0  0  0  0  3  0  0  0  0  0  0
  -21.6570   -6.9530   21.4860 O   0  0  0  0  0  0  0  0  0  0  0  0
  -21.6180   -6.2080   22.6370 C   0  0  0  0  0  0  0  0  0  0  0  0
  -21.2080   -6.7620   23.8710 C   0  0  0  0  0  3  0  0  0  0  0  0
  -21.1190   -5.9450   25.0140 C   0  0  0  0  0  3  0  0  0  0  0  0
  -21.4250   -4.5730   24.9250 C   0  0  0  0  0  0  0  0  0  0  0  0
  -21.8240   -4.0170   23.6970 C   0  0  0  0  0  3  0  0  0  0  0  0
  -21.9190   -4.8330   22.5550 C   0  0  0  0  0  0  0  0  0  0  0  0
  -22.2850   -4.2890   21.3700 F   0  0  0  0  0  0  0  0  0  0  0  0
  -21.3330   -3.7850   26.0200 F   0  0  0  0  0  0  0  0  0  0  0  0
  -22.7350  -13.5900   21.0950 C   0  0  0  0  0  0  0  0  0  0  0  0
  -21.9980  -12.9000   21.9590 N   0  0  0  0  0  0  0  0  0  0  0  0
  -22.3000  -14.6090   20.5600 O   0  0  0  0  0  0  0  0  0  0  0  0
  -22.3610  -12.0780   22.4160 H   0  0  0  0  0  0  0  0  0  0  0  0
  -21.0580  -13.2030   22.1700 H   0  0  0  0  0  0  0  0  0  0  0  0
  -25.3710  -15.2500   20.2850 N   0  0  0  0  0  0  0  0  0  0  0  0
  -24.5990  -15.9010   20.3850 H   0  0  0  0  0  0  0  0  0  0  0  0
  -26.2270  -15.6990   19.9830 H   0  0  0  0  0  0  0  0  0  0  0  0
  1  2  1  0
  1  4  2  0
  2  3  2  0
  3  9  1  0
  3 11  1  0
  4 11  1  0
  5  2  1  0
  5  6  1  0
  6  7  1  0
  7  8  1  0
  9 12  1  0
  9  8  1  0
 10  5  2  0
 12 14  1  0
 13 24  2  0
 14 19  1  0
 15 23  1  0
 15 25  1  0
 16 22  1  0
 16 18  1  0
 17 23  1  0
 18 17  1  0
 19 18  2  0
 20 21  1  0
 20 14  2  0
 21 16  2  0
 22 15  1  0
 23 13  1  0
 25 27  2  0
 26 25  1  0
 28 26  1  0
 29 38  2  0
 29 34  1  0
 30 26  1  0
 30 34  1  0
 31 30  1  0
 32 33  1  0
 32 31  1  0
 33 29  1  0
 34 35  2  0
 35 36  1  0
 37 36  2  0
 38 37  1  0
 39 13  1  0
 39 40  1  0
 39 49  1  0
 40 43  1  0
 41 45  1  0
 41 40  1  0
 42 41  2  0
 45 44  1  0
 47 45  1  0
 47 48  1  0
 47 46  1  0
 49 52  1  1
 49 50  1  0
 51 49  1  0
 53  4  1  0
 53 54  1  0
 54 55  1  0
 55 56  1  0
 56 57  1  0
 58 57  1  0
 59 64  1  0
 60 61  1  0
 60 59  1  0
 62 61  1  0
 62 69  1  0
 62 63  1  0
 64 58  1  0
 64 63  1  0
 65 58  2  0
 66 67  2  0
 67 86  1  0
 68 67  1  0
 68 71  1  0
 69 66  1  0
 69 70  1  0
 70 68  2  0
 71 72  1  0
 72 73  2  0
 74 77  1  0
 74 73  1  0
 75 74  2  0
 76 75  1  0
 76 71  2  0
 77 78  1  0
 78 79  1  0
 79 80  2  0
 81 80  1  0
 81 85  1  0
 82 81  2  0
 83 78  2  0
 83 82  1  0
 84 83  1  0
 86 87  1  0
 87 90  1  0
 87 89  1  0
 88 86  2  0
 91 92  1  0
 91 66  1  0
 93 91  1  0
M  ISO  4   9 101  12 101  57 100  58 100
M  END
>  <TORSDO>  (60) 
F 21

>  <SCORE>  (60) 
-13.687

>  <name>  (60) 
59

>  <ligand_id>  (60) 
59

>  <original_smiles>  (60) 
[H]c1c([H])c([H])c2c(c1[H])C([H])([H])C([H])([H])C([H])([H])C2([H])N([H])C(=O)C1([H])N(C(=O)C([H])(N([H])C(=O)C([H])(N([H])C([H])([H])[H])C([H])([H])[H])C(C([H])([H])[H])(C([H])([H])[H])C([H])([H])[H])C([H])([H])c2c([H])c(OC3([H])c4sc(C([H])([H])C([H])([H])C([H])([H])C([H])([H])C([H])([H])C(=O)N5C([H])([H])C([H])([H])C([H])([H])C([H])(n6nc(-c7c([H])c([H])c(Oc8c([H])c([H])c(F)c([H])c8F)c([H])c7[H])c(C(=O)N([H])[H])c6N([H])[H])C5([H])[H])c([H])c4C(=O)C([H])([H])C([H])([H])C3([H])[H])c([H])c([H])c2C1([H])[H]

>  <smiles>  (60) 
[H]c1c([H])c([H])c2c(c1[H])C([H])([H])C([H])([H])C([H])([H])C2([H])N([H])C(=O)C1([H])N(C(=O)C([H])(N([H])C(=O)C([H])(N([H])C([H])([H])[H])C([H])([H])[H])C(C([H])([H])[H])(C([H])([H])[H])C([H])([H])[H])C([H])([H])c2c([H])c(OC3([H])c4sc(C([H])([H])C([H])([H])C([H])([H])C([H])([H])C([H])([H])C(=O)N5C([H])([H])C([H])([H])C([H])([H])C([H])(n6nc(-c7c([H])c([H])c(Oc8c([H])c([H])c(F)c([H])c8F)c([H])c7[H])c(C(=O)N([H])[H])c6N([H])[H])C5([H])[H])c([H])c4C(=O)C([H])([H])C([H])([H])C3([H])[H])c([H])c([H])c2C1([H])[H]

$$$$
60:0:0
     RDKit          3D

 88 96  0  0  1  0  0  0  0  0999 V2000
  -29.8150  -21.1190   20.4230 C   0  0  0  0  0  3  0  0  0  0  0  0
  -30.6080  -14.7790   20.3720 C   0  0  0  0  0  0  0  0  0  0  0  0
  -30.3710  -12.5040   19.3630 C   0  0  0  0  0  2  0  0  0  0  0  0
  -29.4160  -12.5270   18.1520 C   0  0  0  0  0  2  0  0  0  0  0  0
  -27.9600  -12.3130   18.6100 C   0  0  0  0  0  2  0  0  0  0  0  0
  -27.5730  -13.2300   19.7970 C   0  0  0  0  0  3  0  0  0  0  0  0
  -28.6490  -13.2330   20.9060 C   0  0  0  0  0  2  0  0  0  0  0  0
  -29.9350  -13.5780   20.2830 N   0  0  0  0  0  0  0  0  0  0  0  0
  -31.8250  -14.8110   20.1750 O   0  0  0  0  0  0  0  0  0  0  0  0
  -28.9630  -17.7260   18.8080 C   0  0  0  0  0  2  0  0  0  0  0  0
  -28.4800  -19.0110   19.5440 C   0  0  0  0  0  2  0  0  0  0  0  0
  -30.5570  -18.5490   20.9650 C   0  0  0  0  0  2  0  0  0  0  0  0
  -28.8340  -16.3640   19.5500 C   0  0  0  0  0  2  0  0  0  0  0  0
  -30.2130  -17.0760   21.4780 C   0  0  0  0  0  2  0  0  0  0  0  0
  -29.3850  -19.5780   20.6640 C   0  0  0  0  0  3  0  0  0  0  0  0
  -29.8960  -15.9760   20.5030 N   0  0  0  0  0  0  0  0  0  0  0  0
  -25.2030  -13.8410   20.5540 C   0  0  0  0  0  0  0  0  0  0  0  0
  -24.1390  -13.0700   20.9240 C   0  0  0  0  0  0  0  0  0  0  0  0
  -24.6010  -11.7190   20.8870 C   0  0  0  0  0  0  0  0  0  0  0  0
  -26.2410  -12.9540   20.3090 N   0  0  0  0  0  0  0  0  0  0  0  0
  -25.8890  -11.6760   20.5780 N   0  0  0  0  0  0  0  0  0  0  0  0
  -23.8770  -10.4580   21.0690 C   0  0  0  0  0  0  0  0  0  0  0  0
  -24.3140   -9.4870   21.9970 C   0  0  0  0  0  3  0  0  0  0  0  0
  -23.5910   -8.2880   22.1670 C   0  0  0  0  0  3  0  0  0  0  0  0
  -22.4190   -8.0530   21.4090 C   0  0  0  0  0  0  0  0  0  0  0  0
  -22.0030   -9.0140   20.4690 C   0  0  0  0  0  3  0  0  0  0  0  0
  -22.7280  -10.2040   20.2970 C   0  0  0  0  0  3  0  0  0  0  0  0
  -21.6650   -6.9080   21.4910 O   0  0  0  0  0  0  0  0  0  0  0  0
  -21.6150   -6.1630   22.6410 C   0  0  0  0  0  0  0  0  0  0  0  0
  -21.1730   -6.7120   23.8640 C   0  0  0  0  0  3  0  0  0  0  0  0
  -21.0690   -5.8920   25.0050 C   0  0  0  0  0  3  0  0  0  0  0  0
  -21.3990   -4.5260   24.9250 C   0  0  0  0  0  0  0  0  0  0  0  0
  -21.8370   -3.9770   23.7060 C   0  0  0  0  0  3  0  0  0  0  0  0
  -21.9410   -4.7950   22.5670 C   0  0  0  0  0  0  0  0  0  0  0  0
  -22.3420   -4.2580   21.3890 F   0  0  0  0  0  0  0  0  0  0  0  0
  -21.2930   -3.7360   26.0180 F   0  0  0  0  0  0  0  0  0  0  0  0
  -22.7430  -13.5490   21.1970 C   0  0  0  0  0  0  0  0  0  0  0  0
  -22.0150  -12.8520   22.0630 N   0  0  0  0  0  0  0  0  0  0  0  0
  -22.3060  -14.5760   20.6800 O   0  0  0  0  0  0  0  0  0  0  0  0
  -22.3810  -12.0220   22.5050 H   0  0  0  0  0  0  0  0  0  0  0  0
  -21.0790  -13.1560   22.2880 H   0  0  0  0  0  0  0  0  0  0  0  0
  -25.3610  -15.2130   20.3800 N   0  0  0  0  0  0  0  0  0  0  0  0
  -24.5880  -15.8600   20.4990 H   0  0  0  0  0  0  0  0  0  0  0  0
  -26.2050  -15.6640   20.0550 H   0  0  0  0  0  0  0  0  0  0  0  0
  -28.7200  -22.3000   20.3750 C   0  0  0  0  0  3  0  0  0  0  0  0
  -29.1660  -23.8520   20.3940 C   0  0  0  0  0  3  0  0  0  0  0  0
  -28.0380  -24.9680   20.1460 C   0  0  0  0  0  3  0  0  0  0  0  0
  -28.3010  -26.4380   20.2500 O   0  0  0  0  0  0  0  0  0  0  0  0
  -24.6140  -31.9060   23.2670 C   0  0  0  0  0  0  0  0  0  0  0  0
  -27.1950  -27.3150   20.2000 C   0  0  0  0  0  0  0  0  0  0  0  0
  -23.4000  -30.5110   21.6360 C   0  0  0  0  0  3  0  0  0  0  0  0
  -24.8390  -28.9610   20.2010 C   0  0  0  0  0  0  0  0  0  0  0  0
  -25.9460  -30.8100   21.4510 C   0  0  0  0  0  2  0  0  0  0  0  0
  -26.0170  -29.4350   20.7940 C   0  0  0  0  0  0  0  0  0  0  0  0
  -27.1970  -28.6280   20.7780 C   0  0  0  0  0  3  0  0  0  0  0  0
  -25.9870  -26.9020   19.5890 C   0  0  0  0  0  3  0  0  0  0  0  0
  -24.8290  -27.7010   19.5880 C   0  0  0  0  0  3  0  0  0  0  0  0
  -23.6070  -29.8420   20.2550 C   0  0  0  0  0  2  0  0  0  0  0  0
  -24.6740  -31.0890   22.1770 N   0  0  0  0  0  0  0  0  0  0  0  0
  -23.5270  -32.2140   23.7750 O   0  0  0  0  0  0  0  0  0  0  0  0
  -22.7350  -29.4940   22.5940 C   0  0  0  0  0  0  0  0  0  0  0  0
  -21.4080  -29.3220   22.4670 N   0  0  0  0  0  0  0  0  0  0  0  0
  -23.4110  -28.8640   23.4130 O   0  0  0  0  0  0  0  0  0  0  0  0
  -20.9250  -29.8820   21.7790 H   0  0  0  0  0  0  0  0  0  0  0  0
  -18.0240  -28.1370   22.9540 C   0  0  0  0  0  0  0  0  0  0  0  0
  -20.5820  -28.3860   23.2320 C   0  0  0  0  0  3  0  0  0  0  0  0
  -20.6800  -26.9540   22.6550 C   0  0  0  0  0  2  0  0  0  0  0  0
  -19.5800  -26.6380   21.6370 C   0  0  0  0  0  2  0  0  0  0  0  0
  -18.1970  -26.7880   22.2780 C   0  0  0  0  0  2  0  0  0  0  0  0
  -19.1440  -28.8940   23.3880 C   0  0  0  0  0  0  0  0  0  0  0  0
  -18.9290  -30.1570   23.9810 C   0  0  0  0  0  3  0  0  0  0  0  0
  -17.6250  -30.6620   24.1460 C   0  0  0  0  0  3  0  0  0  0  0  0
  -16.5190  -29.9010   23.7290 C   0  0  0  0  0  3  0  0  0  0  0  0
  -16.7200  -28.6400   23.1380 C   0  0  0  0  0  3  0  0  0  0  0  0
  -25.9010  -32.5200   23.9020 C   0  0  0  0  0  3  0  0  0  0  0  0
  -26.4000  -31.7440   25.1810 C   0  0  1  0  0  0  0  0  0  0  0  0
  -25.2950  -31.5190   26.2390 C   0  0  0  0  0  1  0  0  0  0  0  0
  -26.9750  -30.3620   24.7930 C   0  0  0  0  0  1  0  0  0  0  0  0
  -27.5540  -32.5290   25.8500 C   0  0  0  0  0  1  0  0  0  0  0  0
  -25.6020  -33.9190   24.2330 N   0  0  0  0  0  0  0  0  0  0  0  0
  -25.9210  -34.9690   23.4650 C   0  0  0  0  0  0  0  0  0  0  0  0
  -26.5670  -34.8590   22.4200 O   0  0  0  0  0  0  0  0  0  0  0  0
  -25.0230  -34.0770   25.0450 H   0  0  0  0  0  0  0  0  0  0  0  0
  -24.1750  -36.7530   23.1630 C   0  0  0  0  0  1  0  0  0  0  0  0
  -25.4470  -36.3590   23.9290 C   0  0  0  0  0  3  0  0  0  0  0  0
  -27.6080  -37.2580   24.6740 C   0  0  0  0  0  1  0  0  0  0  0  0
  -26.4720  -37.4140   23.7680 N   0  0  0  0  0  0  0  0  0  0  0  0
  -26.0680  -38.3350   23.9240 H   0  0  0  0  0  0  0  0  0  0  0  0
  2 16  1  0
  3  8  1  0
  4  5  1  0
  4  3  1  0
  6  5  1  0
  6 20  1  0
  6  7  1  0
  8  2  1  0
  8  7  1  0
  9  2  2  0
 10 11  1  0
 10 13  1  0
 11 15  1  0
 12 14  1  0
 13 16  1  0
 15  1  1  0
 15 12  1  0
 16 14  1  0
 17 18  2  0
 18 37  1  0
 19 18  1  0
 19 22  1  0
 20 17  1  0
 20 21  1  0
 21 19  2  0
 22 23  1  0
 23 24  2  0
 25 28  1  0
 25 24  1  0
 26 25  2  0
 27 26  1  0
 27 22  2  0
 28 29  1  0
 29 30  1  0
 30 31  2  0
 32 31  1  0
 32 36  1  0
 33 32  2  0
 34 29  2  0
 34 33  1  0
 35 34  1  0
 37 38  1  0
 38 41  1  0
 38 40  1  0
 39 37  2  0
 42 43  1  0
 42 17  1  0
 44 42  1  0
 45 46  1  0
 45  1  2  0
 47 48  1  0
 47 46  2  0
 49 60  2  0
 50 48  1  0
 50 55  1  0
 51 59  1  0
 51 61  1  0
 52 58  1  0
 52 54  1  0
 53 59  1  0
 54 53  1  0
 55 54  2  0
 56 50  2  0
 57 56  1  0
 57 52  2  0
 58 51  1  0
 59 49  1  0
 61 63  2  0
 62 61  1  0
 64 62  1  0
 65 74  2  0
 65 70  1  0
 66 62  1  0
 66 70  1  0
 67 66  1  0
 68 69  1  0
 68 67  1  0
 69 65  1  0
 70 71  2  0
 71 72  1  0
 73 72  2  0
 74 73  1  0
 75 49  1  0
 75 80  1  0
 75 76  1  0
 76 79  1  1
 76 77  1  0
 78 76  1  0
 80 83  1  0
 81 85  1  0
 81 80  1  0
 82 81  2  0
 85 84  1  0
 87 88  1  0
 87 85  1  0
 87 86  1  0
M  ISO  4   2 100  16 100  47 101  48 101
M  END
>  <TORSDO>  (61) 
F 19

>  <SCORE>  (61) 
-14.361

>  <name>  (61) 
60

>  <ligand_id>  (61) 
60

>  <original_smiles>  (61) 
[H]c1c([H])c([H])c2c(c1[H])C([H])([H])C([H])([H])C([H])([H])C2([H])N([H])C(=O)C1([H])N(C(=O)C([H])(N([H])C(=O)C([H])(N([H])C([H])([H])[H])C([H])([H])[H])C(C([H])([H])[H])(C([H])([H])[H])C([H])([H])[H])C([H])([H])c2c([H])c(OC([H])([H])C([H])([H])C([H])([H])C([H])([H])C3([H])C([H])([H])C([H])([H])N(C(=O)N4C([H])([H])C([H])([H])C([H])([H])C([H])(n5nc(-c6c([H])c([H])c(Oc7c([H])c([H])c(F)c([H])c7F)c([H])c6[H])c(C(=O)N([H])[H])c5N([H])[H])C4([H])[H])C([H])([H])C([H])([H])C3([H])[H])c([H])c([H])c2C1([H])[H]

>  <smiles>  (61) 
[H]c1c([H])c([H])c2c(c1[H])C([H])([H])C([H])([H])C([H])([H])C2([H])N([H])C(=O)C1([H])N(C(=O)C([H])(N([H])C(=O)C([H])(N([H])C([H])([H])[H])C([H])([H])[H])C(C([H])([H])[H])(C([H])([H])[H])C([H])([H])[H])C([H])([H])c2c([H])c(OC([H])([H])C([H])([H])C([H])([H])C([H])([H])C3([H])C([H])([H])C([H])([H])N(C(=O)N4C([H])([H])C([H])([H])C([H])([H])C([H])(n5nc(-c6c([H])c([H])c(Oc7c([H])c([H])c(F)c([H])c7F)c([H])c6[H])c(C(=O)N([H])[H])c5N([H])[H])C4([H])[H])C([H])([H])C([H])([H])C3([H])[H])c([H])c([H])c2C1([H])[H]

$$$$
61:0:0
     RDKit          3D

 93102  0  0  1  0  0  0  0  0999 V2000
  -28.1580  -22.4420   18.7390 C   0  0  0  0  0  0  0  0  0  0  0  0
  -29.7010  -23.0100   20.4550 C   0  0  0  0  0  2  0  0  0  0  0  0
  -28.9280  -21.7810   19.8880 C   0  0  0  0  0  3  0  0  0  0  0  0
  -29.1710  -24.3020   19.7490 C   0  0  0  0  0  3  0  0  0  0  0  0
  -28.3370  -23.7610   18.6940 N   0  0  0  0  0  0  0  0  0  0  0  0
  -27.4550  -21.8200   17.9440 O   0  0  0  0  0  0  0  0  0  0  0  0
  -27.9260  -24.3560   17.9870 H   0  0  0  0  0  0  0  0  0  0  0  0
  -29.7590  -20.5400   19.3880 C   0  0  0  0  0  2  0  0  0  0  0  0
  -31.6640  -18.8660   22.2970 C   0  0  0  0  0  3  0  0  0  0  0  0
  -31.2620  -17.5210   22.1910 C   0  0  0  0  0  3  0  0  0  0  0  0
  -31.1580  -19.8390   21.4110 C   0  0  0  0  0  3  0  0  0  0  0  0
  -29.8410  -18.1110   20.3040 C   0  0  0  0  0  3  0  0  0  0  0  0
  -30.3520  -17.1180   21.1910 C   0  0  0  0  0  0  0  0  0  0  0  0
  -30.2350  -19.4790   20.4060 C   0  0  0  0  0  0  0  0  0  0  0  0
  -29.8160  -15.6670   21.2100 C   0  0  0  0  0  2  0  0  0  0  0  0
  -30.5830  -14.5420   20.4400 C   0  0  0  0  0  0  0  0  0  0  0  0
  -30.3420  -12.3850   19.2250 C   0  0  0  0  0  2  0  0  0  0  0  0
  -29.3690  -12.5750   18.0400 C   0  0  0  0  0  2  0  0  0  0  0  0
  -27.9000  -12.4180   18.4870 C   0  0  0  0  0  2  0  0  0  0  0  0
  -27.5750  -13.2450   19.7570 C   0  0  0  0  0  3  0  0  0  0  0  0
  -28.6440  -12.9980   20.8460 C   0  0  0  0  0  2  0  0  0  0  0  0
  -29.9580  -13.3390   20.2760 N   0  0  0  0  0  0  0  0  0  0  0  0
  -31.6860  -14.7740   19.9310 O   0  0  0  0  0  0  0  0  0  0  0  0
  -25.1810  -13.8620   20.4780 C   0  0  0  0  0  0  0  0  0  0  0  0
  -24.1140  -13.0950   20.8590 C   0  0  0  0  0  0  0  0  0  0  0  0
  -24.5740  -11.7420   20.8310 C   0  0  0  0  0  0  0  0  0  0  0  0
  -26.2230  -12.9790   20.2450 N   0  0  0  0  0  0  0  0  0  0  0  0
  -25.8610  -11.6980   20.5130 N   0  0  0  0  0  0  0  0  0  0  0  0
  -23.8480  -10.4810   21.0320 C   0  0  0  0  0  0  0  0  0  0  0  0
  -24.2950   -9.5130   21.9580 C   0  0  0  0  0  3  0  0  0  0  0  0
  -23.5700   -8.3160   22.1460 C   0  0  0  0  0  3  0  0  0  0  0  0
  -22.3850   -8.0800   21.4100 C   0  0  0  0  0  0  0  0  0  0  0  0
  -21.9580   -9.0370   20.4720 C   0  0  0  0  0  3  0  0  0  0  0  0
  -22.6830  -10.2260   20.2820 C   0  0  0  0  0  3  0  0  0  0  0  0
  -21.6300   -6.9360   21.5090 O   0  0  0  0  0  0  0  0  0  0  0  0
  -21.6090   -6.1860   22.6570 C   0  0  0  0  0  0  0  0  0  0  0  0
  -21.2180   -6.7350   23.8980 C   0  0  0  0  0  3  0  0  0  0  0  0
  -21.1430   -5.9100   25.0390 C   0  0  0  0  0  3  0  0  0  0  0  0
  -21.4480   -4.5400   24.9410 C   0  0  0  0  0  0  0  0  0  0  0  0
  -21.8320   -3.9910   23.7050 C   0  0  0  0  0  3  0  0  0  0  0  0
  -21.9100   -4.8120   22.5660 C   0  0  0  0  0  0  0  0  0  0  0  0
  -22.2590   -4.2740   21.3730 F   0  0  0  0  0  0  0  0  0  0  0  0
  -21.3680   -3.7460   26.0350 F   0  0  0  0  0  0  0  0  0  0  0  0
  -22.7190  -13.5740   21.1410 C   0  0  0  0  0  0  0  0  0  0  0  0
  -22.0000  -12.8820   22.0170 N   0  0  0  0  0  0  0  0  0  0  0  0
  -22.2770  -14.5970   20.6190 O   0  0  0  0  0  0  0  0  0  0  0  0
  -22.3720  -12.0540   22.4580 H   0  0  0  0  0  0  0  0  0  0  0  0
  -21.0640  -13.1830   22.2500 H   0  0  0  0  0  0  0  0  0  0  0  0
  -25.3470  -15.2330   20.2910 N   0  0  0  0  0  0  0  0  0  0  0  0
  -24.5850  -15.8910   20.4090 H   0  0  0  0  0  0  0  0  0  0  0  0
  -26.1960  -15.6670   19.9530 H   0  0  0  0  0  0  0  0  0  0  0  0
  -28.3650  -25.3210   20.6250 C   0  0  0  0  0  2  0  0  0  0  0  0
  -28.4020  -26.6820   20.1230 O   0  0  0  0  0  0  0  0  0  0  0  0
  -24.5790  -31.8740   23.2540 C   0  0  0  0  0  0  0  0  0  0  0  0
  -27.2280  -27.4200   20.1590 C   0  0  0  0  0  0  0  0  0  0  0  0
  -23.3780  -30.4850   21.6000 C   0  0  0  0  0  3  0  0  0  0  0  0
  -24.8350  -28.9460   20.1690 C   0  0  0  0  0  0  0  0  0  0  0  0
  -25.9090  -30.8260   21.4220 C   0  0  0  0  0  2  0  0  0  0  0  0
  -25.9930  -29.4600   20.7670 C   0  0  0  0  0  0  0  0  0  0  0  0
  -27.1950  -28.7070   20.7500 C   0  0  0  0  0  3  0  0  0  0  0  0
  -26.0510  -26.9240   19.5580 C   0  0  0  0  0  3  0  0  0  0  0  0
  -24.8610  -27.6790   19.5620 C   0  0  0  0  0  3  0  0  0  0  0  0
  -23.5930  -29.8120   20.2170 C   0  0  0  0  0  2  0  0  0  0  0  0
  -24.6410  -31.0730   22.1520 N   0  0  0  0  0  0  0  0  0  0  0  0
  -23.4910  -32.1740   23.7640 O   0  0  0  0  0  0  0  0  0  0  0  0
  -22.7170  -29.4570   22.5480 C   0  0  0  0  0  0  0  0  0  0  0  0
  -21.3910  -29.2810   22.4130 N   0  0  0  0  0  0  0  0  0  0  0  0
  -23.3930  -28.8210   23.3600 O   0  0  0  0  0  0  0  0  0  0  0  0
  -20.9050  -29.8450   21.7310 H   0  0  0  0  0  0  0  0  0  0  0  0
  -18.0090  -28.0940   22.8870 C   0  0  0  0  0  0  0  0  0  0  0  0
  -20.5680  -28.3360   23.1670 C   0  0  0  0  0  3  0  0  0  0  0  0
  -20.6650  -26.9120   22.5720 C   0  0  0  0  0  2  0  0  0  0  0  0
  -19.5660  -26.6110   21.5490 C   0  0  0  0  0  2  0  0  0  0  0  0
  -18.1820  -26.7530   22.1910 C   0  0  0  0  0  2  0  0  0  0  0  0
  -19.1310  -28.8450   23.3290 C   0  0  0  0  0  0  0  0  0  0  0  0
  -18.9170  -30.1010   23.9370 C   0  0  0  0  0  3  0  0  0  0  0  0
  -17.6150  -30.6080   24.1050 C   0  0  0  0  0  3  0  0  0  0  0  0
  -16.5080  -29.8540   23.6780 C   0  0  0  0  0  3  0  0  0  0  0  0
  -16.7050  -28.5980   23.0750 C   0  0  0  0  0  3  0  0  0  0  0  0
  -25.8650  -32.4820   23.8990 C   0  0  0  0  0  3  0  0  0  0  0  0
  -26.3760  -31.6860   25.1630 C   0  0  1  0  0  0  0  0  0  0  0  0
  -25.2760  -31.4380   26.2200 C   0  0  0  0  0  1  0  0  0  0  0  0
  -26.9540  -30.3140   24.7480 C   0  0  0  0  0  1  0  0  0  0  0  0
  -27.5280  -32.4650   25.8430 C   0  0  0  0  0  1  0  0  0  0  0  0
  -25.5630  -33.8750   24.2510 N   0  0  0  0  0  0  0  0  0  0  0  0
  -25.9010  -34.9380   23.5090 C   0  0  0  0  0  0  0  0  0  0  0  0
  -26.5720  -34.8480   22.4770 O   0  0  0  0  0  0  0  0  0  0  0  0
  -24.9680  -34.0200   25.0530 H   0  0  0  0  0  0  0  0  0  0  0  0
  -24.1730  -36.7340   23.1750 C   0  0  0  0  0  1  0  0  0  0  0  0
  -25.4140  -36.3210   23.9840 C   0  0  0  0  0  3  0  0  0  0  0  0
  -27.5540  -37.1800   24.8240 C   0  0  0  0  0  1  0  0  0  0  0  0
  -26.4470  -37.3750   23.8900 N   0  0  0  0  0  0  0  0  0  0  0  0
  -26.0420  -38.2910   24.0680 H   0  0  0  0  0  0  0  0  0  0  0  0
  1  3  1  0
  3  8  1  0
  3  2  1  0
  4  2  1  0
  4 52  1  0
  5  1  1  0
  5  4  1  0
  6  1  2  0
  7  5  1  0
  8 14  1  0
 10  9  1  0
 11  9  2  0
 12 14  2  0
 12 13  1  0
 13 15  1  0
 13 10  2  0
 14 11  1  0
 16 15  1  0
 17 22  1  0
 18 19  1  0
 18 17  1  0
 20 19  1  0
 20 27  1  0
 20 21  1  0
 22 16  1  0
 22 21  1  0
 23 16  2  0
 24 25  2  0
 25 44  1  0
 26 25  1  0
 26 29  1  0
 27 24  1  0
 27 28  1  0
 28 26  2  0
 29 30  1  0
 30 31  2  0
 32 35  1  0
 32 31  1  0
 33 32  2  0
 34 33  1  0
 34 29  2  0
 35 36  1  0
 36 37  1  0
 37 38  2  0
 39 38  1  0
 39 43  1  0
 40 39  2  0
 41 36  2  0
 41 40  1  0
 42 41  1  0
 44 45  1  0
 45 48  1  0
 45 47  1  0
 46 44  2  0
 49 50  1  0
 49 24  1  0
 51 49  1  0
 53 55  1  0
 53 52  1  0
 54 65  2  0
 55 60  1  0
 56 64  1  0
 56 66  1  0
 57 63  1  0
 57 59  1  0
 58 64  1  0
 59 58  1  0
 60 59  2  0
 61 62  1  0
 61 55  2  0
 62 57  2  0
 63 56  1  0
 64 54  1  0
 66 68  2  0
 67 66  1  0
 69 67  1  0
 70 79  2  0
 70 75  1  0
 71 67  1  0
 71 75  1  0
 72 71  1  0
 73 74  1  0
 73 72  1  0
 74 70  1  0
 75 76  2  0
 76 77  1  0
 78 77  2  0
 79 78  1  0
 80 54  1  0
 80 85  1  0
 80 81  1  0
 81 84  1  1
 81 82  1  0
 83 81  1  0
 85 88  1  0
 86 90  1  0
 86 85  1  0
 87 86  2  0
 90 89  1  0
 92 90  1  0
 92 93  1  0
 92 91  1  0
M  ISO  4  15 100  16 100  52 101  53 101
M  END
>  <TORSDO>  (62) 
F 20

>  <SCORE>  (62) 
-13.913

>  <name>  (62) 
61

>  <ligand_id>  (62) 
61

>  <original_smiles>  (62) 
[H]c1c([H])c([H])c2c(c1[H])C([H])([H])C([H])([H])C([H])([H])C2([H])N([H])C(=O)C1([H])N(C(=O)C([H])(N([H])C(=O)C([H])(N([H])C([H])([H])[H])C([H])([H])[H])C(C([H])([H])[H])(C([H])([H])[H])C([H])([H])[H])C([H])([H])c2c([H])c(OC([H])([H])C3([H])N([H])C(=O)C([H])(C([H])([H])c4c([H])c([H])c([H])c(C([H])([H])C(=O)N5C([H])([H])C([H])([H])C([H])([H])C([H])(n6nc(-c7c([H])c([H])c(Oc8c([H])c([H])c(F)c([H])c8F)c([H])c7[H])c(C(=O)N([H])[H])c6N([H])[H])C5([H])[H])c4[H])C3([H])[H])c([H])c([H])c2C1([H])[H]

>  <smiles>  (62) 
[H]c1c([H])c([H])c2c(c1[H])C([H])([H])C([H])([H])C([H])([H])C2([H])N([H])C(=O)C1([H])N(C(=O)C([H])(N([H])C(=O)C([H])(N([H])C([H])([H])[H])C([H])([H])[H])C(C([H])([H])[H])(C([H])([H])[H])C([H])([H])[H])C([H])([H])c2c([H])c(OC([H])([H])C3([H])N([H])C(=O)C([H])(C([H])([H])c4c([H])c([H])c([H])c(C([H])([H])C(=O)N5C([H])([H])C([H])([H])C([H])([H])C([H])(n6nc(-c7c([H])c([H])c(Oc8c([H])c([H])c(F)c([H])c8F)c([H])c7[H])c(C(=O)N([H])[H])c6N([H])[H])C5([H])[H])c4[H])C3([H])[H])c([H])c([H])c2C1([H])[H]

$$$$
62:0:0
     RDKit          3D

 91 99  0  0  1  0  0  0  0  0999 V2000
  -28.3300  -23.6540   22.3790 C   0  0  0  0  0  3  0  0  0  0  0  0
  -27.8790  -24.5240   23.3310 C   0  0  0  0  0  3  0  0  0  0  0  0
  -28.6030  -24.2610   21.1060 C   0  0  0  0  0  0  0  0  0  0  0  0
  -28.2970  -25.6260   21.0990 C   0  0  0  0  0  0  0  0  0  0  0  0
  -27.7550  -26.1320   22.7010 S   0  0  0  0  0  0  0  0  0  0  0  0
  -29.0830  -23.4390   19.9730 C   0  0  0  0  0  0  0  0  0  0  0  0
  -28.8730  -23.6920   18.7850 O   0  0  0  0  0  0  0  0  0  0  0  0
  -29.9740  -22.2040   20.3180 C   0  0  0  0  0  2  0  0  0  0  0  0
  -29.3940  -20.7800   20.0240 C   0  0  0  0  0  2  0  0  0  0  0  0
  -30.2050  -19.6050   20.6740 C   0  0  0  0  0  2  0  0  0  0  0  0
  -29.6980  -18.1640   20.3580 C   0  0  0  0  0  2  0  0  0  0  0  0
  -30.4320  -17.0270   21.1420 C   0  0  0  0  0  2  0  0  0  0  0  0
  -30.6660  -14.6200   20.3600 C   0  0  0  0  0  0  0  0  0  0  0  0
  -30.3860  -12.4490   19.2120 C   0  0  0  0  0  2  0  0  0  0  0  0
  -29.4300  -12.6080   18.0110 C   0  0  0  0  0  2  0  0  0  0  0  0
  -27.9570  -12.4650   18.4470 C   0  0  0  0  0  2  0  0  0  0  0  0
  -27.6190  -13.3080   19.7040 C   0  0  0  0  0  3  0  0  0  0  0  0
  -28.6830  -13.1170   20.8080 C   0  0  0  0  0  2  0  0  0  0  0  0
  -29.9950  -13.4410   20.2240 N   0  0  0  0  0  0  0  0  0  0  0  0
  -31.8110  -14.7830   19.9340 O   0  0  0  0  0  0  0  0  0  0  0  0
  -29.9520  -15.6530   20.8540 N   0  0  0  0  0  0  0  0  0  0  0  0
  -28.9980  -15.4360   21.1090 H   0  0  0  0  0  0  0  0  0  0  0  0
  -25.2150  -13.9100   20.4030 C   0  0  0  0  0  0  0  0  0  0  0  0
  -24.1510  -13.1360   20.7790 C   0  0  0  0  0  0  0  0  0  0  0  0
  -24.6210  -11.7870   20.7710 C   0  0  0  0  0  0  0  0  0  0  0  0
  -26.2670  -13.0320   20.1880 N   0  0  0  0  0  0  0  0  0  0  0  0
  -25.9130  -11.7510   20.4680 N   0  0  0  0  0  0  0  0  0  0  0  0
  -23.9020  -10.5240   20.9770 C   0  0  0  0  0  0  0  0  0  0  0  0
  -24.3440   -9.5730   21.9230 C   0  0  0  0  0  3  0  0  0  0  0  0
  -23.6300   -8.3710   22.1190 C   0  0  0  0  0  3  0  0  0  0  0  0
  -22.4560   -8.1140   21.3690 C   0  0  0  0  0  0  0  0  0  0  0  0
  -22.0330   -9.0550   20.4110 C   0  0  0  0  0  3  0  0  0  0  0  0
  -22.7490  -10.2470   20.2150 C   0  0  0  0  0  3  0  0  0  0  0  0
  -21.7120   -6.9640   21.4700 O   0  0  0  0  0  0  0  0  0  0  0  0
  -21.6780   -6.2310   22.6290 C   0  0  0  0  0  0  0  0  0  0  0  0
  -21.2520   -6.7910   23.8540 C   0  0  0  0  0  3  0  0  0  0  0  0
  -21.1640   -5.9830   25.0040 C   0  0  0  0  0  3  0  0  0  0  0  0
  -21.4920   -4.6150   24.9320 C   0  0  0  0  0  0  0  0  0  0  0  0
  -21.9100   -4.0550   23.7120 C   0  0  0  0  0  3  0  0  0  0  0  0
  -21.9980   -4.8610   22.5630 C   0  0  0  0  0  0  0  0  0  0  0  0
  -22.3810   -4.3110   21.3860 F   0  0  0  0  0  0  0  0  0  0  0  0
  -21.4000   -3.8350   26.0350 F   0  0  0  0  0  0  0  0  0  0  0  0
  -22.7490  -13.6090   21.0370 C   0  0  0  0  0  0  0  0  0  0  0  0
  -22.0220  -12.9200   21.9090 N   0  0  0  0  0  0  0  0  0  0  0  0
  -22.3050  -14.6250   20.5030 O   0  0  0  0  0  0  0  0  0  0  0  0
  -22.3920  -12.0990   22.3640 H   0  0  0  0  0  0  0  0  0  0  0  0
  -21.0820  -13.2220   22.1260 H   0  0  0  0  0  0  0  0  0  0  0  0
  -25.3680  -15.2800   20.2090 N   0  0  0  0  0  0  0  0  0  0  0  0
  -24.5910  -15.9230   20.3220 H   0  0  0  0  0  0  0  0  0  0  0  0
  -26.2060  -15.7290   19.8620 H   0  0  0  0  0  0  0  0  0  0  0  0
  -28.3280  -26.6410   20.1660 O   0  0  0  0  0  0  0  0  0  0  0  0
  -24.6220  -31.9310   23.2350 C   0  0  0  0  0  0  0  0  0  0  0  0
  -27.2240  -27.4780   20.1070 C   0  0  0  0  0  0  0  0  0  0  0  0
  -23.3990  -30.5320   21.6060 C   0  0  0  0  0  3  0  0  0  0  0  0
  -24.8370  -29.0080   20.1420 C   0  0  0  0  0  0  0  0  0  0  0  0
  -25.9230  -30.8880   21.3790 C   0  0  0  0  0  2  0  0  0  0  0  0
  -26.0040  -29.5260   20.7200 C   0  0  0  0  0  0  0  0  0  0  0  0
  -27.2050  -28.7710   20.6940 C   0  0  0  0  0  3  0  0  0  0  0  0
  -26.0440  -26.9880   19.5130 C   0  0  0  0  0  3  0  0  0  0  0  0
  -24.8540  -27.7410   19.5330 C   0  0  0  0  0  3  0  0  0  0  0  0
  -23.5920  -29.8650   20.2190 C   0  0  0  0  0  2  0  0  0  0  0  0
  -24.6680  -31.1270   22.1350 N   0  0  0  0  0  0  0  0  0  0  0  0
  -23.5410  -32.2210   23.7670 O   0  0  0  0  0  0  0  0  0  0  0  0
  -22.7620  -29.5060   22.5710 C   0  0  0  0  0  0  0  0  0  0  0  0
  -21.4340  -29.3250   22.4650 N   0  0  0  0  0  0  0  0  0  0  0  0
  -23.4560  -28.8720   23.3720 O   0  0  0  0  0  0  0  0  0  0  0  0
  -20.9230  -29.9090   21.8180 H   0  0  0  0  0  0  0  0  0  0  0  0
  -18.0790  -28.0780   22.9640 C   0  0  0  0  0  0  0  0  0  0  0  0
  -20.6340  -28.3600   23.2180 C   0  0  0  0  0  3  0  0  0  0  0  0
  -20.7570  -26.9420   22.6130 C   0  0  0  0  0  2  0  0  0  0  0  0
  -19.6400  -26.5910   21.6260 C   0  0  0  0  0  2  0  0  0  0  0  0
  -18.2630  -26.7340   22.2800 C   0  0  0  0  0  2  0  0  0  0  0  0
  -19.1920  -28.8460   23.3900 C   0  0  0  0  0  0  0  0  0  0  0  0
  -18.9640  -30.1030   23.9920 C   0  0  0  0  0  3  0  0  0  0  0  0
  -17.6590  -30.5940   24.1730 C   0  0  0  0  0  3  0  0  0  0  0  0
  -16.5580  -29.8230   23.7580 C   0  0  0  0  0  3  0  0  0  0  0  0
  -16.7700  -28.5690   23.1570 C   0  0  0  0  0  3  0  0  0  0  0  0
  -25.9150  -32.5510   23.8520 C   0  0  0  0  0  3  0  0  0  0  0  0
  -25.6120  -33.9470   24.1920 N   0  0  0  0  0  0  0  0  0  0  0  0
  -25.9390  -35.0050   23.4380 C   0  0  0  0  0  0  0  0  0  0  0  0
  -26.6000  -34.9070   22.4000 O   0  0  0  0  0  0  0  0  0  0  0  0
  -25.0220  -34.0970   24.9980 H   0  0  0  0  0  0  0  0  0  0  0  0
  -24.2130  -36.8040   23.1060 C   0  0  0  0  0  1  0  0  0  0  0  0
  -25.4550  -36.3890   23.9090 C   0  0  0  0  0  3  0  0  0  0  0  0
  -27.5930  -37.2650   24.7410 C   0  0  0  0  0  1  0  0  0  0  0  0
  -26.4880  -37.4420   23.8040 N   0  0  0  0  0  0  0  0  0  0  0  0
  -26.0820  -38.3590   23.9630 H   0  0  0  0  0  0  0  0  0  0  0  0
  -26.4450  -31.7720   25.1180 C   0  0  1  0  0  0  0  0  0  0  0  0
  -25.3650  -31.5330   26.1970 C   0  0  0  0  0  1  0  0  0  0  0  0
  -27.0260  -30.3970   24.7130 C   0  0  0  0  0  1  0  0  0  0  0  0
  -27.6010  -32.5640   25.7750 C   0  0  0  0  0  1  0  0  0  0  0  0
  1  2  2  0
  3  1  1  0
  4  3  2  0
  4  5  1  0
  5  2  1  0
  6  8  1  0
  6  3  1  0
  7  6  2  0
  9  8  1  0
  9 10  1  0
 11 10  1  0
 11 12  1  0
 13 21  1  0
 14 19  1  0
 15 16  1  0
 15 14  1  0
 17 16  1  0
 17 26  1  0
 17 18  1  0
 19 13  1  0
 19 18  1  0
 20 13  2  0
 21 22  1  0
 21 12  1  0
 23 24  2  0
 24 43  1  0
 25 24  1  0
 25 28  1  0
 26 23  1  0
 26 27  1  0
 27 25  2  0
 28 29  1  0
 29 30  2  0
 31 34  1  0
 31 30  1  0
 32 31  2  0
 33 32  1  0
 33 28  2  0
 34 35  1  0
 35 36  1  0
 36 37  2  0
 38 37  1  0
 38 42  1  0
 39 38  2  0
 40 35  2  0
 40 39  1  0
 41 40  1  0
 43 44  1  0
 44 47  1  0
 44 46  1  0
 45 43  2  0
 48 49  1  0
 48 23  1  0
 50 48  1  0
 51  4  1  0
 52 63  2  0
 53 51  1  0
 53 58  1  0
 54 62  1  0
 54 64  1  0
 55 61  1  0
 55 57  1  0
 56 62  1  0
 57 56  1  0
 58 57  2  0
 59 60  1  0
 59 53  2  0
 60 55  2  0
 61 54  1  0
 62 52  1  0
 64 66  2  0
 65 64  1  0
 67 65  1  0
 68 77  2  0
 68 73  1  0
 69 65  1  0
 69 73  1  0
 70 69  1  0
 71 72  1  0
 71 70  1  0
 72 68  1  0
 73 74  2  0
 74 75  1  0
 76 75  2  0
 77 76  1  0
 78 52  1  0
 78 79  1  0
 78 88  1  0
 79 82  1  0
 80 84  1  0
 80 79  1  0
 81 80  2  0
 84 83  1  0
 86 84  1  0
 86 87  1  0
 86 85  1  0
 88 91  1  1
 88 89  1  0
 90 88  1  0
M  ISO  4   4 101  13 100  21 100  51 101
M  END
>  <TORSDO>  (63) 
F 22

>  <SCORE>  (63) 
-12.214

>  <name>  (63) 
62

>  <ligand_id>  (63) 
62

>  <original_smiles>  (63) 
[H]c1sc(Oc2c([H])c([H])c3c(c2[H])C([H])([H])N(C(=O)C([H])(N([H])C(=O)C([H])(N([H])C([H])([H])[H])C([H])([H])[H])C(C([H])([H])[H])(C([H])([H])[H])C([H])([H])[H])C([H])(C(=O)N([H])C2([H])c4c([H])c([H])c([H])c([H])c4C([H])([H])C([H])([H])C2([H])[H])C3([H])[H])c(C(=O)C([H])([H])C([H])([H])C([H])([H])C([H])([H])C([H])([H])N([H])C(=O)N2C([H])([H])C([H])([H])C([H])([H])C([H])(n3nc(-c4c([H])c([H])c(Oc5c([H])c([H])c(F)c([H])c5F)c([H])c4[H])c(C(=O)N([H])[H])c3N([H])[H])C2([H])[H])c1[H]

>  <smiles>  (63) 
[H]c1sc(Oc2c([H])c([H])c3c(c2[H])C([H])([H])N(C(=O)C([H])(N([H])C(=O)C([H])(N([H])C([H])([H])[H])C([H])([H])[H])C(C([H])([H])[H])(C([H])([H])[H])C([H])([H])[H])C([H])(C(=O)N([H])C2([H])c4c([H])c([H])c([H])c([H])c4C([H])([H])C([H])([H])C2([H])[H])C3([H])[H])c(C(=O)C([H])([H])C([H])([H])C([H])([H])C([H])([H])C([H])([H])N([H])C(=O)N2C([H])([H])C([H])([H])C([H])([H])C([H])(n3nc(-c4c([H])c([H])c(Oc5c([H])c([H])c(F)c([H])c5F)c([H])c4[H])c(C(=O)N([H])[H])c3N([H])[H])C2([H])[H])c1[H]

$$$$
63:0:0
     RDKit          3D

 93100  0  0  1  0  0  0  0  0999 V2000
  -29.0450  -23.5270   19.7350 C   0  0  0  0  0  0  0  0  0  0  0  0
  -29.0890  -24.2380   18.6050 N   0  0  0  0  0  0  0  0  0  0  0  0
  -29.4420  -23.9640   20.8180 O   0  0  0  0  0  0  0  0  0  0  0  0
  -28.7290  -23.8030   17.7650 H   0  0  0  0  0  0  0  0  0  0  0  0
  -28.5590  -22.1800   19.4910 C   0  0  0  0  0  3  0  0  0  0  0  0
  -28.8190  -21.1940   20.3710 C   0  0  0  0  0  3  0  0  0  0  0  0
  -28.4240  -19.7390   20.1780 C   0  0  0  0  0  2  0  0  0  0  0  0
  -30.2510  -19.2130   18.5860 C   0  0  0  0  0  1  0  0  0  0  0  0
  -29.6130  -18.8900   19.8870 N   0  0  2  0  0  4  0  0  0  0  0  0
  -30.2960  -19.1180   20.5940 H   0  0  0  0  0  0  0  0  0  0  0  0
  -29.3500  -17.4300   20.0230 C   0  0  0  0  0  2  0  0  0  0  0  0
  -30.1610  -16.7910   21.1770 C   0  0  0  0  0  2  0  0  0  0  0  0
  -30.6510  -14.4160   20.5680 C   0  0  0  0  0  0  0  0  0  0  0  0
  -30.3840  -12.2980   19.3420 C   0  0  0  0  0  2  0  0  0  0  0  0
  -29.4370  -12.5400   18.1450 C   0  0  0  0  0  2  0  0  0  0  0  0
  -27.9590  -12.4110   18.5620 C   0  0  0  0  0  2  0  0  0  0  0  0
  -27.6280  -13.2100   19.8490 C   0  0  0  0  0  3  0  0  0  0  0  0
  -28.6700  -12.9140   20.9530 C   0  0  0  0  0  2  0  0  0  0  0  0
  -30.0050  -13.2330   20.4110 N   0  0  0  0  0  0  0  0  0  0  0  0
  -31.7320  -14.6840   20.0330 O   0  0  0  0  0  0  0  0  0  0  0  0
  -29.9440  -15.3440   21.2250 N   0  0  0  0  0  0  0  0  0  0  0  0
  -29.0850  -15.0270   21.6510 H   0  0  0  0  0  0  0  0  0  0  0  0
  -25.2120  -13.8310   20.5060 C   0  0  0  0  0  0  0  0  0  0  0  0
  -24.1380  -13.0630   20.8700 C   0  0  0  0  0  0  0  0  0  0  0  0
  -24.5970  -11.7100   20.8530 C   0  0  0  0  0  0  0  0  0  0  0  0
  -26.2640  -12.9470   20.3030 N   0  0  0  0  0  0  0  0  0  0  0  0
  -25.8910  -11.6690   20.5590 N   0  0  0  0  0  0  0  0  0  0  0  0
  -23.8670  -10.4500   21.0420 C   0  0  0  0  0  0  0  0  0  0  0  0
  -24.3040   -9.4740   21.9650 C   0  0  0  0  0  3  0  0  0  0  0  0
  -23.5760   -8.2790   22.1420 C   0  0  0  0  0  3  0  0  0  0  0  0
  -22.3970   -8.0480   21.3940 C   0  0  0  0  0  0  0  0  0  0  0  0
  -21.9810   -9.0120   20.4580 C   0  0  0  0  0  3  0  0  0  0  0  0
  -22.7080  -10.1980   20.2820 C   0  0  0  0  0  3  0  0  0  0  0  0
  -21.6400   -6.9050   21.4830 O   0  0  0  0  0  0  0  0  0  0  0  0
  -21.6160   -6.1450   22.6230 C   0  0  0  0  0  0  0  0  0  0  0  0
  -21.2350   -6.6880   23.8700 C   0  0  0  0  0  3  0  0  0  0  0  0
  -21.1520   -5.8540   25.0040 C   0  0  0  0  0  3  0  0  0  0  0  0
  -21.4450   -4.4810   24.8940 C   0  0  0  0  0  0  0  0  0  0  0  0
  -21.8190   -3.9380   23.6520 C   0  0  0  0  0  3  0  0  0  0  0  0
  -21.9020   -4.7690   22.5190 C   0  0  0  0  0  0  0  0  0  0  0  0
  -22.2440   -4.2370   21.3210 F   0  0  0  0  0  0  0  0  0  0  0  0
  -21.3580   -3.6800   25.9810 F   0  0  0  0  0  0  0  0  0  0  0  0
  -22.7390  -13.5430   21.1270 C   0  0  0  0  0  0  0  0  0  0  0  0
  -22.0050  -12.8490   21.9910 N   0  0  0  0  0  0  0  0  0  0  0  0
  -22.3030  -14.5650   20.5980 O   0  0  0  0  0  0  0  0  0  0  0  0
  -22.3720  -12.0240   22.4410 H   0  0  0  0  0  0  0  0  0  0  0  0
  -21.0670  -13.1510   22.2130 H   0  0  0  0  0  0  0  0  0  0  0  0
  -25.3800  -15.1990   20.3160 N   0  0  0  0  0  0  0  0  0  0  0  0
  -24.5980  -15.8430   20.3850 H   0  0  0  0  0  0  0  0  0  0  0  0
  -26.2180  -15.6260   19.9490 H   0  0  0  0  0  0  0  0  0  0  0  0
  -29.7810  -25.5140   18.4330 C   0  0  0  0  0  2  0  0  0  0  0  0
  -28.8520  -26.7140   18.6260 C   0  0  0  0  0  2  0  0  0  0  0  0
  -28.4130  -26.8120   19.9820 O   0  0  0  0  0  0  0  0  0  0  0  0
  -24.5950  -31.8930   23.2250 C   0  0  0  0  0  0  0  0  0  0  0  0
  -27.2320  -27.4900   20.0990 C   0  0  0  0  0  0  0  0  0  0  0  0
  -23.3840  -30.4870   21.5940 C   0  0  0  0  0  3  0  0  0  0  0  0
  -24.8290  -28.9520   20.1670 C   0  0  0  0  0  0  0  0  0  0  0  0
  -25.9070  -30.8530   21.3850 C   0  0  0  0  0  2  0  0  0  0  0  0
  -25.9890  -29.4830   20.7470 C   0  0  0  0  0  0  0  0  0  0  0  0
  -27.1960  -28.7540   20.7210 C   0  0  0  0  0  3  0  0  0  0  0  0
  -26.0510  -26.9470   19.5510 C   0  0  0  0  0  3  0  0  0  0  0  0
  -24.8500  -27.6770   19.5780 C   0  0  0  0  0  3  0  0  0  0  0  0
  -23.5870  -29.8100   20.2130 C   0  0  0  0  0  2  0  0  0  0  0  0
  -24.6480  -31.0880   22.1280 N   0  0  0  0  0  0  0  0  0  0  0  0
  -23.5130  -32.1860   23.7500 O   0  0  0  0  0  0  0  0  0  0  0  0
  -22.7440  -29.4600   22.5540 C   0  0  0  0  0  0  0  0  0  0  0  0
  -21.4200  -29.2740   22.4300 N   0  0  0  0  0  0  0  0  0  0  0  0
  -23.4330  -28.8310   23.3620 O   0  0  0  0  0  0  0  0  0  0  0  0
  -20.9260  -29.8270   21.7450 H   0  0  0  0  0  0  0  0  0  0  0  0
  -18.0510  -28.0760   22.9360 C   0  0  0  0  0  0  0  0  0  0  0  0
  -20.6080  -28.3350   23.2030 C   0  0  0  0  0  3  0  0  0  0  0  0
  -20.7110  -26.9050   22.6240 C   0  0  0  0  0  2  0  0  0  0  0  0
  -19.6070  -26.5840   21.6120 C   0  0  0  0  0  2  0  0  0  0  0  0
  -18.2260  -26.7280   22.2590 C   0  0  0  0  0  2  0  0  0  0  0  0
  -19.1690  -28.8380   23.3660 C   0  0  0  0  0  0  0  0  0  0  0  0
  -18.9520  -30.1000   23.9580 C   0  0  0  0  0  3  0  0  0  0  0  0
  -17.6470  -30.6020   24.1270 C   0  0  0  0  0  3  0  0  0  0  0  0
  -16.5430  -29.8370   23.7120 C   0  0  0  0  0  3  0  0  0  0  0  0
  -16.7450  -28.5770   23.1240 C   0  0  0  0  0  3  0  0  0  0  0  0
  -25.8850  -32.5160   23.8460 C   0  0  0  0  0  3  0  0  0  0  0  0
  -25.5810  -33.9120   24.1800 N   0  0  0  0  0  0  0  0  0  0  0  0
  -25.9140  -34.9640   23.4200 C   0  0  0  0  0  0  0  0  0  0  0  0
  -26.5820  -34.8610   22.3890 O   0  0  0  0  0  0  0  0  0  0  0  0
  -24.9860  -34.0650   24.9810 H   0  0  0  0  0  0  0  0  0  0  0  0
  -24.1840  -36.7540   23.0660 C   0  0  0  0  0  1  0  0  0  0  0  0
  -25.4230  -36.3510   23.8800 C   0  0  0  0  0  3  0  0  0  0  0  0
  -27.5580  -37.2300   24.7130 C   0  0  0  0  0  1  0  0  0  0  0  0
  -26.4560  -37.4040   23.7720 N   0  0  0  0  0  0  0  0  0  0  0  0
  -26.0490  -38.3220   23.9260 H   0  0  0  0  0  0  0  0  0  0  0  0
  -26.4070  -31.7400   25.1160 C   0  0  1  0  0  0  0  0  0  0  0  0
  -25.3200  -31.4960   26.1890 C   0  0  0  0  0  1  0  0  0  0  0  0
  -26.9880  -30.3640   24.7130 C   0  0  0  0  0  1  0  0  0  0  0  0
  -27.5610  -32.5330   25.7750 C   0  0  0  0  0  1  0  0  0  0  0  0
  1  3  2  0
  2  1  1  0
  4  2  1  0
  5  1  1  0
  5  6  2  0
  7  6  1  0
  8  9  1  0
  9 11  1  0
  9  7  1  0
  9 10  1  1
 11 12  1  0
 12 21  1  0
 13 21  1  0
 14 19  1  0
 15 16  1  0
 15 14  1  0
 17 16  1  0
 17 26  1  0
 17 18  1  0
 19 13  1  0
 19 18  1  0
 20 13  2  0
 21 22  1  0
 23 24  2  0
 24 43  1  0
 25 24  1  0
 25 28  1  0
 26 23  1  0
 26 27  1  0
 27 25  2  0
 28 29  1  0
 29 30  2  0
 31 34  1  0
 31 30  1  0
 32 31  2  0
 33 32  1  0
 33 28  2  0
 34 35  1  0
 35 36  1  0
 36 37  2  0
 38 37  1  0
 38 42  1  0
 39 38  2  0
 40 35  2  0
 40 39  1  0
 41 40  1  0
 43 44  1  0
 44 47  1  0
 44 46  1  0
 45 43  2  0
 48 49  1  0
 48 23  1  0
 50 48  1  0
 51  2  1  0
 51 52  1  0
 52 53  1  0
 53 55  1  0
 54 65  2  0
 55 60  1  0
 56 64  1  0
 56 66  1  0
 57 63  1  0
 57 59  1  0
 58 64  1  0
 59 58  1  0
 60 59  2  0
 61 62  1  0
 61 55  2  0
 62 57  2  0
 63 56  1  0
 64 54  1  0
 66 68  2  0
 67 66  1  0
 69 67  1  0
 70 79  2  0
 70 75  1  0
 71 67  1  0
 71 75  1  0
 72 71  1  0
 73 74  1  0
 73 72  1  0
 74 70  1  0
 75 76  2  0
 76 77  1  0
 78 77  2  0
 79 78  1  0
 80 54  1  0
 80 81  1  0
 80 90  1  0
 81 84  1  0
 82 86  1  0
 82 81  1  0
 83 82  2  0
 86 85  1  0
 88 86  1  0
 88 89  1  0
 88 87  1  0
 90 93  1  1
 90 91  1  0
 92 90  1  0
M  ISO  4  13 100  21 100  52 101  53 101
M  END
>  <TORSDO>  (64) 
F 23

>  <SCORE>  (64) 
-12.860

>  <name>  (64) 
63

>  <ligand_id>  (64) 
63

>  <original_smiles>  (64) 
[H]C(C(=O)N([H])C([H])([H])C([H])([H])Oc1c([H])c([H])c2c(c1[H])C([H])([H])N(C(=O)C([H])(N([H])C(=O)C([H])(N([H])C([H])([H])[H])C([H])([H])[H])C(C([H])([H])[H])(C([H])([H])[H])C([H])([H])[H])C([H])(C(=O)N([H])C1([H])c3c([H])c([H])c([H])c([H])c3C([H])([H])C([H])([H])C1([H])[H])C2([H])[H])=C([H])C([H])([H])[N+]([H])(C([H])([H])[H])C([H])([H])C([H])([H])N([H])C(=O)N1C([H])([H])C([H])([H])C([H])([H])C([H])(n2nc(-c3c([H])c([H])c(Oc4c([H])c([H])c(F)c([H])c4F)c([H])c3[H])c(C(=O)N([H])[H])c2N([H])[H])C1([H])[H]

>  <smiles>  (64) 
[H]C(C(=O)N([H])C([H])([H])C([H])([H])Oc1c([H])c([H])c2c(c1[H])C([H])([H])N(C(=O)C([H])(N([H])C(=O)C([H])(N([H])C([H])([H])[H])C([H])([H])[H])C(C([H])([H])[H])(C([H])([H])[H])C([H])([H])[H])C([H])(C(=O)N([H])C1([H])c3c([H])c([H])c([H])c([H])c3C([H])([H])C([H])([H])C1([H])[H])C2([H])[H])=C([H])C([H])([H])[N+]([H])(C([H])([H])[H])C([H])([H])C([H])([H])N([H])C(=O)N1C([H])([H])C([H])([H])C([H])([H])C([H])(n2nc(-c3c([H])c([H])c(Oc4c([H])c([H])c(F)c([H])c4F)c([H])c3[H])c(C(=O)N([H])[H])c2N([H])[H])C1([H])[H]

$$$$
64:0:0
     RDKit          3D

 97107  0  0  1  0  0  0  0  0999 V2000
  -29.5790  -20.5040   20.2060 C   0  0  0  0  0  3  0  0  0  0  0  0
  -31.7140  -22.3100   20.2360 C   0  0  0  0  0  3  0  0  0  0  0  0
  -30.9010  -20.0060   20.2720 C   0  0  0  0  0  0  0  0  0  0  0  0
  -29.3220  -21.8650   20.0580 C   0  0  0  0  0  0  0  0  0  0  0  0
  -30.3950  -22.7810   20.0880 C   0  0  0  0  0  0  0  0  0  0  0  0
  -31.9850  -20.9280   20.3040 C   0  0  0  0  0  0  0  0  0  0  0  0
  -27.8910  -22.3020   19.8160 C   0  0  0  0  0  2  0  0  0  0  0  0
  -27.8500  -23.5990   19.0190 C   0  0  0  0  0  2  0  0  0  0  0  0
  -30.8630  -24.8850   18.7510 C   0  0  0  0  0  2  0  0  0  0  0  0
  -30.1440  -26.2090   18.5250 C   0  0  0  0  0  2  0  0  0  0  0  0
  -30.1480  -24.2700   19.9550 C   0  0  0  0  0  3  0  0  0  0  0  0
  -28.6730  -24.6550   19.7600 C   0  0  0  0  0  3  0  0  0  0  0  0
  -28.7120  -25.9990   19.0400 C   0  0  0  0  0  3  0  0  0  0  0  0
  -33.4430  -20.4990   20.3850 C   0  0  0  0  0  1  0  0  0  0  0  0
  -31.0800  -18.5140   20.2690 C   0  0  0  0  0  0  0  0  0  0  0  0
  -30.0450  -17.8690   19.7220 N   0  0  0  0  0  0  0  0  0  0  0  0
  -32.0900  -17.9510   20.6940 O   0  0  0  0  0  0  0  0  0  0  0  0
  -29.3060  -18.4630   19.3740 H   0  0  0  0  0  0  0  0  0  0  0  0
  -29.8830  -16.4480   19.5210 C   0  0  0  0  0  2  0  0  0  0  0  0
  -29.9520  -15.6320   20.8330 C   0  0  0  0  0  2  0  0  0  0  0  0
  -30.7110  -14.3470   20.5280 C   0  0  0  0  0  0  0  0  0  0  0  0
  -30.3770  -12.2370   19.3570 C   0  0  0  0  0  2  0  0  0  0  0  0
  -29.4640  -12.5300   18.1480 C   0  0  0  0  0  2  0  0  0  0  0  0
  -27.9770  -12.4250   18.5480 C   0  0  0  0  0  2  0  0  0  0  0  0
  -27.6420  -13.2340   19.8300 C   0  0  0  0  0  3  0  0  0  0  0  0
  -28.6750  -12.9400   20.9430 C   0  0  0  0  0  2  0  0  0  0  0  0
  -30.0220  -13.1900   20.4120 N   0  0  0  0  0  0  0  0  0  0  0  0
  -31.8820  -14.4770   20.1580 O   0  0  0  0  0  0  0  0  0  0  0  0
  -25.2320  -13.8760   20.4770 C   0  0  0  0  0  0  0  0  0  0  0  0
  -24.1510  -13.1150   20.8330 C   0  0  0  0  0  0  0  0  0  0  0  0
  -24.6030  -11.7600   20.8290 C   0  0  0  0  0  0  0  0  0  0  0  0
  -26.2750  -12.9820   20.2820 N   0  0  0  0  0  0  0  0  0  0  0  0
  -25.8980  -11.7060   20.5470 N   0  0  0  0  0  0  0  0  0  0  0  0
  -23.8650  -10.5050   21.0220 C   0  0  0  0  0  0  0  0  0  0  0  0
  -24.2780   -9.5450   21.9730 C   0  0  0  0  0  3  0  0  0  0  0  0
  -23.5430   -8.3540   22.1530 C   0  0  0  0  0  3  0  0  0  0  0  0
  -22.3810   -8.1150   21.3820 C   0  0  0  0  0  0  0  0  0  0  0  0
  -21.9870   -9.0630   20.4220 C   0  0  0  0  0  3  0  0  0  0  0  0
  -22.7210  -10.2460   20.2410 C   0  0  0  0  0  3  0  0  0  0  0  0
  -21.6190   -6.9740   21.4690 O   0  0  0  0  0  0  0  0  0  0  0  0
  -21.5550   -6.2390   22.6250 C   0  0  0  0  0  0  0  0  0  0  0  0
  -21.1280   -6.8070   23.8450 C   0  0  0  0  0  3  0  0  0  0  0  0
  -21.0100   -5.9980   24.9940 C   0  0  0  0  0  3  0  0  0  0  0  0
  -21.3070   -4.6250   24.9230 C   0  0  0  0  0  0  0  0  0  0  0  0
  -21.7270   -4.0570   23.7070 C   0  0  0  0  0  3  0  0  0  0  0  0
  -21.8470   -4.8620   22.5600 C   0  0  0  0  0  0  0  0  0  0  0  0
  -22.2320   -4.3060   21.3860 F   0  0  0  0  0  0  0  0  0  0  0  0
  -21.1870   -3.8460   26.0230 F   0  0  0  0  0  0  0  0  0  0  0  0
  -22.7520  -13.6060   21.0730 C   0  0  0  0  0  0  0  0  0  0  0  0
  -22.0040  -12.9230   21.9340 N   0  0  0  0  0  0  0  0  0  0  0  0
  -22.3290  -14.6280   20.5360 O   0  0  0  0  0  0  0  0  0  0  0  0
  -22.3590  -12.0960   22.3910 H   0  0  0  0  0  0  0  0  0  0  0  0
  -21.0650  -13.2330   22.1390 H   0  0  0  0  0  0  0  0  0  0  0  0
  -25.4100  -15.2420   20.2850 N   0  0  0  0  0  0  0  0  0  0  0  0
  -24.6460  -15.9040   20.3750 H   0  0  0  0  0  0  0  0  0  0  0  0
  -26.2740  -15.6760   19.9840 H   0  0  0  0  0  0  0  0  0  0  0  0
  -28.4680  -26.9430   20.0640 O   0  0  0  0  0  0  0  0  0  0  0  0
  -24.5760  -31.9040   23.2460 C   0  0  0  0  0  0  0  0  0  0  0  0
  -27.2290  -27.5230   20.1340 C   0  0  0  0  0  0  0  0  0  0  0  0
  -23.3610  -30.4900   21.6160 C   0  0  0  0  0  3  0  0  0  0  0  0
  -24.8080  -28.9520   20.1970 C   0  0  0  0  0  0  0  0  0  0  0  0
  -25.8800  -30.8630   21.4070 C   0  0  0  0  0  2  0  0  0  0  0  0
  -25.9600  -29.4930   20.7800 C   0  0  0  0  0  0  0  0  0  0  0  0
  -27.1680  -28.7770   20.7610 C   0  0  0  0  0  3  0  0  0  0  0  0
  -26.0520  -26.9600   19.5860 C   0  0  0  0  0  3  0  0  0  0  0  0
  -24.8420  -27.6750   19.6110 C   0  0  0  0  0  3  0  0  0  0  0  0
  -23.5630  -29.8040   20.2390 C   0  0  0  0  0  2  0  0  0  0  0  0
  -24.6240  -31.0970   22.1500 N   0  0  0  0  0  0  0  0  0  0  0  0
  -23.4940  -32.1990   23.7710 O   0  0  0  0  0  0  0  0  0  0  0  0
  -22.7200  -29.4680   22.5790 C   0  0  0  0  0  0  0  0  0  0  0  0
  -21.3980  -29.2780   22.4470 N   0  0  0  0  0  0  0  0  0  0  0  0
  -23.4080  -28.8490   23.3960 O   0  0  0  0  0  0  0  0  0  0  0  0
  -20.9060  -29.8320   21.7610 H   0  0  0  0  0  0  0  0  0  0  0  0
  -18.0290  -28.0770   22.9360 C   0  0  0  0  0  0  0  0  0  0  0  0
  -20.5840  -28.3390   23.2180 C   0  0  0  0  0  3  0  0  0  0  0  0
  -20.6920  -26.9080   22.6430 C   0  0  0  0  0  2  0  0  0  0  0  0
  -19.5930  -26.5800   21.6270 C   0  0  0  0  0  2  0  0  0  0  0  0
  -18.2090  -26.7260   22.2650 C   0  0  0  0  0  2  0  0  0  0  0  0
  -19.1440  -28.8420   23.3690 C   0  0  0  0  0  0  0  0  0  0  0  0
  -18.9230  -30.1080   23.9520 C   0  0  0  0  0  3  0  0  0  0  0  0
  -17.6180  -30.6100   24.1080 C   0  0  0  0  0  3  0  0  0  0  0  0
  -16.5160  -29.8430   23.6940 C   0  0  0  0  0  3  0  0  0  0  0  0
  -16.7220  -28.5780   23.1140 C   0  0  0  0  0  3  0  0  0  0  0  0
  -25.8680  -32.5230   23.8660 C   0  0  0  0  0  3  0  0  0  0  0  0
  -26.3870  -31.7480   25.1390 C   0  0  1  0  0  0  0  0  0  0  0  0
  -25.2950  -31.4990   26.2030 C   0  0  0  0  0  1  0  0  0  0  0  0
  -26.9780  -30.3750   24.7390 C   0  0  0  0  0  1  0  0  0  0  0  0
  -27.5330  -32.5450   25.8060 C   0  0  0  0  0  1  0  0  0  0  0  0
  -25.5690  -33.9230   24.1920 N   0  0  0  0  0  0  0  0  0  0  0  0
  -25.9080  -34.9680   23.4280 C   0  0  0  0  0  0  0  0  0  0  0  0
  -26.5810  -34.8580   22.4000 O   0  0  0  0  0  0  0  0  0  0  0  0
  -24.9710  -34.0840   24.9890 H   0  0  0  0  0  0  0  0  0  0  0  0
  -24.1870  -36.7630   23.0530 C   0  0  0  0  0  1  0  0  0  0  0  0
  -25.4210  -36.3600   23.8760 C   0  0  0  0  0  3  0  0  0  0  0  0
  -27.5530  -37.2340   24.7200 C   0  0  0  0  0  1  0  0  0  0  0  0
  -26.4580  -37.4080   23.7700 N   0  0  0  0  0  0  0  0  0  0  0  0
  -26.0530  -38.3300   23.9190 H   0  0  0  0  0  0  0  0  0  0  0  0
  1  3  1  0
  2  6  1  0
  3  6  2  0
  4  5  1  0
  4  1  2  0
  5  2  2  0
  6 14  1  0
  7  4  1  0
  8  7  1  0
 10  9  1  0
 10 13  1  0
 11  9  1  0
 11  5  1  0
 12  8  1  0
 12 11  1  0
 13 12  1  0
 13 57  1  0
 15  3  1  0
 15 17  2  0
 16 15  1  0
 18 16  1  0
 19 16  1  0
 19 20  1  0
 21 20  1  0
 22 27  1  0
 23 24  1  0
 23 22  1  0
 25 24  1  0
 25 32  1  0
 25 26  1  0
 27 21  1  0
 27 26  1  0
 28 21  2  0
 29 30  2  0
 30 49  1  0
 31 30  1  0
 31 34  1  0
 32 29  1  0
 32 33  1  0
 33 31  2  0
 34 35  1  0
 35 36  2  0
 37 40  1  0
 37 36  1  0
 38 37  2  0
 39 38  1  0
 39 34  2  0
 40 41  1  0
 41 42  1  0
 42 43  2  0
 44 43  1  0
 44 48  1  0
 45 44  2  0
 46 41  2  0
 46 45  1  0
 47 46  1  0
 49 50  1  0
 50 53  1  0
 50 52  1  0
 51 49  2  0
 54 55  1  0
 54 29  1  0
 56 54  1  0
 57 59  1  0
 58 69  2  0
 59 64  1  0
 60 68  1  0
 60 70  1  0
 61 67  1  0
 61 63  1  0
 62 68  1  0
 63 62  1  0
 64 63  2  0
 65 66  1  0
 65 59  2  0
 66 61  2  0
 67 60  1  0
 68 58  1  0
 70 72  2  0
 71 70  1  0
 73 71  1  0
 74 83  2  0
 74 79  1  0
 75 71  1  0
 75 79  1  0
 76 75  1  0
 77 78  1  0
 77 76  1  0
 78 74  1  0
 79 80  2  0
 80 81  1  0
 82 81  2  0
 83 82  1  0
 84 58  1  0
 84 89  1  0
 84 85  1  0
 85 88  1  1
 85 86  1  0
 87 85  1  0
 89 92  1  0
 90 94  1  0
 90 89  1  0
 91 90  2  0
 94 93  1  0
 96 94  1  0
 96 97  1  0
 96 95  1  0
M  ISO  4  13 101  20 100  21 100  57 101
M  END
>  <TORSDO>  (65) 
F 19

>  <SCORE>  (65) 
-14.519

>  <name>  (65) 
64

>  <ligand_id>  (65) 
64

>  <original_smiles>  (65) 
[H]c1c([H])c([H])c2c(c1[H])C([H])([H])C([H])([H])C([H])([H])C2([H])N([H])C(=O)C1([H])N(C(=O)C([H])(N([H])C(=O)C([H])(N([H])C([H])([H])[H])C([H])([H])[H])C(C([H])([H])[H])(C([H])([H])[H])C([H])([H])[H])C([H])([H])c2c([H])c(OC3([H])C([H])([H])C([H])([H])C4([H])c5c([H])c(C([H])([H])[H])c(C(=O)N([H])C([H])([H])C([H])([H])C(=O)N6C([H])([H])C([H])([H])C([H])([H])C([H])(n7nc(-c8c([H])c([H])c(Oc9c([H])c([H])c(F)c([H])c9F)c([H])c8[H])c(C(=O)N([H])[H])c7N([H])[H])C6([H])[H])c([H])c5C([H])([H])C([H])([H])C34[H])c([H])c([H])c2C1([H])[H]

>  <smiles>  (65) 
[H]c1c([H])c([H])c2c(c1[H])C([H])([H])C([H])([H])C([H])([H])C2([H])N([H])C(=O)C1([H])N(C(=O)C([H])(N([H])C(=O)C([H])(N([H])C([H])([H])[H])C([H])([H])[H])C(C([H])([H])[H])(C([H])([H])[H])C([H])([H])[H])C([H])([H])c2c([H])c(OC3([H])C([H])([H])C([H])([H])C4([H])c5c([H])c(C([H])([H])[H])c(C(=O)N([H])C([H])([H])C([H])([H])C(=O)N6C([H])([H])C([H])([H])C([H])([H])C([H])(n7nc(-c8c([H])c([H])c(Oc9c([H])c([H])c(F)c([H])c9F)c([H])c8[H])c(C(=O)N([H])[H])c7N([H])[H])C6([H])[H])c([H])c5C([H])([H])C([H])([H])C34[H])c([H])c([H])c2C1([H])[H]

$$$$
65:0:0
     RDKit          3D

 95103  0  0  1  0  0  0  0  0999 V2000
  -30.0490  -21.0830   19.9680 C   0  0  0  0  0  3  0  0  0  0  0  0
  -29.9960  -19.2870   18.5850 C   0  0  0  0  0  3  0  0  0  0  0  0
  -30.0980  -19.6640   19.8910 C   0  0  0  0  0  0  0  0  0  0  0  0
  -29.9160  -21.5460   18.6800 C   0  0  0  0  0  0  0  0  0  0  0  0
  -29.8010  -20.4180   16.3720 C   0  0  0  0  0  1  0  0  0  0  0  0
  -29.8980  -20.4350   17.8240 N   0  0  0  0  0  0  0  0  0  0  0  0
  -29.7430  -22.9380   18.1810 C   0  0  0  0  0  0  0  0  0  0  0  0
  -30.1630  -23.9130   18.9910 N   0  0  0  0  0  0  0  0  0  0  0  0
  -29.2380  -23.1810   17.0840 O   0  0  0  0  0  0  0  0  0  0  0  0
  -30.6210  -23.6400   19.8480 H   0  0  0  0  0  0  0  0  0  0  0  0
  -29.9540  -25.3470   18.7690 C   0  0  0  0  0  2  0  0  0  0  0  0
  -28.4910  -25.7700   19.0270 C   0  0  0  0  0  2  0  0  0  0  0  0
  -28.4000  -26.7980   20.0210 O   0  0  0  0  0  0  0  0  0  0  0  0
  -24.5920  -31.9310   23.2380 C   0  0  0  0  0  0  0  0  0  0  0  0
  -27.1990  -27.4780   20.1060 C   0  0  0  0  0  0  0  0  0  0  0  0
  -23.3690  -30.5200   21.6230 C   0  0  0  0  0  3  0  0  0  0  0  0
  -24.8000  -28.9740   20.1980 C   0  0  0  0  0  0  0  0  0  0  0  0
  -25.8970  -30.8610   21.4060 C   0  0  0  0  0  2  0  0  0  0  0  0
  -25.9700  -29.4910   20.7680 C   0  0  0  0  0  0  0  0  0  0  0  0
  -27.1700  -28.7440   20.7300 C   0  0  0  0  0  3  0  0  0  0  0  0
  -25.9970  -26.9600   19.5680 C   0  0  0  0  0  3  0  0  0  0  0  0
  -24.8030  -27.6990   19.6110 C   0  0  0  0  0  3  0  0  0  0  0  0
  -23.5640  -29.8390   20.2450 C   0  0  0  0  0  2  0  0  0  0  0  0
  -24.6390  -31.1150   22.1480 N   0  0  0  0  0  0  0  0  0  0  0  0
  -23.5110  -32.2320   23.7630 O   0  0  0  0  0  0  0  0  0  0  0  0
  -22.7250  -29.5010   22.5900 C   0  0  0  0  0  0  0  0  0  0  0  0
  -21.4000  -29.3140   22.4650 N   0  0  0  0  0  0  0  0  0  0  0  0
  -23.4110  -28.8790   23.4040 O   0  0  0  0  0  0  0  0  0  0  0  0
  -20.9080  -29.8670   21.7750 H   0  0  0  0  0  0  0  0  0  0  0  0
  -18.0290  -28.1170   22.9720 C   0  0  0  0  0  0  0  0  0  0  0  0
  -20.5860  -28.3790   23.2400 C   0  0  0  0  0  3  0  0  0  0  0  0
  -20.6910  -26.9450   22.6710 C   0  0  0  0  0  2  0  0  0  0  0  0
  -19.5890  -26.6170   21.6590 C   0  0  0  0  0  2  0  0  0  0  0  0
  -18.2070  -26.7630   22.3030 C   0  0  0  0  0  2  0  0  0  0  0  0
  -19.1470  -28.8820   23.3950 C   0  0  0  0  0  0  0  0  0  0  0  0
  -18.9280  -30.1490   23.9800 C   0  0  0  0  0  3  0  0  0  0  0  0
  -17.6230  -30.6520   24.1410 C   0  0  0  0  0  3  0  0  0  0  0  0
  -16.5190  -29.8840   23.7320 C   0  0  0  0  0  3  0  0  0  0  0  0
  -16.7230  -28.6170   23.1550 C   0  0  0  0  0  3  0  0  0  0  0  0
  -25.8850  -32.5510   23.8530 C   0  0  0  0  0  3  0  0  0  0  0  0
  -25.5820  -33.9470   24.1890 N   0  0  0  0  0  0  0  0  0  0  0  0
  -25.9090  -35.0000   23.4280 C   0  0  0  0  0  0  0  0  0  0  0  0
  -26.5720  -34.8980   22.3910 O   0  0  0  0  0  0  0  0  0  0  0  0
  -24.9900  -34.1000   24.9920 H   0  0  0  0  0  0  0  0  0  0  0  0
  -24.1790  -36.7920   23.0850 C   0  0  0  0  0  1  0  0  0  0  0  0
  -25.4240  -36.3870   23.8890 C   0  0  0  0  0  3  0  0  0  0  0  0
  -27.5640  -37.2660   24.7080 C   0  0  0  0  0  1  0  0  0  0  0  0
  -26.4550  -37.4380   23.7730 N   0  0  0  0  0  0  0  0  0  0  0  0
  -26.0510  -38.3590   23.9290 H   0  0  0  0  0  0  0  0  0  0  0  0
  -26.4130  -31.7730   25.1210 C   0  0  1  0  0  0  0  0  0  0  0  0
  -25.3280  -31.5330   26.1960 C   0  0  0  0  0  1  0  0  0  0  0  0
  -26.9890  -30.3950   24.7170 C   0  0  0  0  0  1  0  0  0  0  0  0
  -27.5710  -32.5630   25.7740 C   0  0  0  0  0  1  0  0  0  0  0  0
  -30.2300  -18.7910   20.9800 N   0  0  0  0  0  0  0  0  0  0  0  0
  -30.0390  -19.0840   21.9390 H   0  0  0  0  0  0  0  0  0  0  0  0
  -30.5270  -17.4050   20.6640 C   0  0  0  0  0  2  0  0  0  0  0  0
  -30.6370  -16.4760   21.8840 C   0  0  0  0  0  2  0  0  0  0  0  0
  -30.6990  -14.3430   20.5810 C   0  0  0  0  0  0  0  0  0  0  0  0
  -30.3400  -12.3110   19.2360 C   0  0  0  0  0  2  0  0  0  0  0  0
  -29.3840  -12.5770   18.0540 C   0  0  0  0  0  2  0  0  0  0  0  0
  -27.9070  -12.4740   18.4850 C   0  0  0  0  0  2  0  0  0  0  0  0
  -27.6040  -13.2510   19.7940 C   0  0  0  0  0  3  0  0  0  0  0  0
  -28.6530  -12.9020   20.8710 C   0  0  0  0  0  2  0  0  0  0  0  0
  -29.9880  -13.2160   20.3330 N   0  0  0  0  0  0  0  0  0  0  0  0
  -31.7280  -14.6460   19.9680 O   0  0  0  0  0  0  0  0  0  0  0  0
  -30.1830  -15.1340   21.5340 N   0  0  0  0  0  0  0  0  0  0  0  0
  -29.3480  -14.8000   21.9910 H   0  0  0  0  0  0  0  0  0  0  0  0
  -25.2010  -13.8860   20.4810 C   0  0  0  0  0  0  0  0  0  0  0  0
  -24.1250  -13.1230   20.8540 C   0  0  0  0  0  0  0  0  0  0  0  0
  -24.5750  -11.7670   20.8300 C   0  0  0  0  0  0  0  0  0  0  0  0
  -26.2420  -12.9950   20.2650 N   0  0  0  0  0  0  0  0  0  0  0  0
  -25.8630  -11.7160   20.5210 N   0  0  0  0  0  0  0  0  0  0  0  0
  -23.8410  -10.5100   21.0250 C   0  0  0  0  0  0  0  0  0  0  0  0
  -24.2750   -9.5410   21.9550 C   0  0  0  0  0  3  0  0  0  0  0  0
  -23.5440   -8.3480   22.1390 C   0  0  0  0  0  3  0  0  0  0  0  0
  -22.3620   -8.1190   21.3940 C   0  0  0  0  0  0  0  0  0  0  0  0
  -21.9470   -9.0790   20.4550 C   0  0  0  0  0  3  0  0  0  0  0  0
  -22.6810  -10.2630   20.2680 C   0  0  0  0  0  3  0  0  0  0  0  0
  -21.5990   -6.9810   21.4880 O   0  0  0  0  0  0  0  0  0  0  0  0
  -21.5620   -6.2320   22.6380 C   0  0  0  0  0  0  0  0  0  0  0  0
  -21.1700   -6.7850   23.8760 C   0  0  0  0  0  3  0  0  0  0  0  0
  -21.0790   -5.9640   25.0180 C   0  0  0  0  0  3  0  0  0  0  0  0
  -21.3690   -4.5900   24.9230 C   0  0  0  0  0  0  0  0  0  0  0  0
  -21.7580   -4.0350   23.6900 C   0  0  0  0  0  3  0  0  0  0  0  0
  -21.8500   -4.8540   22.5500 C   0  0  0  0  0  0  0  0  0  0  0  0
  -22.2010   -4.3110   21.3600 F   0  0  0  0  0  0  0  0  0  0  0  0
  -21.2770   -3.7990   26.0180 F   0  0  0  0  0  0  0  0  0  0  0  0
  -22.7300  -13.6140   21.1200 C   0  0  0  0  0  0  0  0  0  0  0  0
  -21.9930  -12.9320   21.9900 N   0  0  0  0  0  0  0  0  0  0  0  0
  -22.2990  -14.6370   20.5900 O   0  0  0  0  0  0  0  0  0  0  0  0
  -22.3530  -12.1120   22.4530 H   0  0  0  0  0  0  0  0  0  0  0  0
  -21.0590  -13.2470   22.2080 H   0  0  0  0  0  0  0  0  0  0  0  0
  -25.3730  -15.2540   20.2900 N   0  0  0  0  0  0  0  0  0  0  0  0
  -24.6120  -15.9180   20.3950 H   0  0  0  0  0  0  0  0  0  0  0  0
  -26.2310  -15.6840   19.9700 H   0  0  0  0  0  0  0  0  0  0  0  0
  2  3  2  0
  3  1  1  0
  3 54  1  0
  4  1  2  0
  5  6  1  0
  6  2  1  0
  6  4  1  0
  7  4  1  0
  7  8  1  0
  8 10  1  0
  9  7  2  0
 11  8  1  0
 11 12  1  0
 12 13  1  0
 13 15  1  0
 14 25  2  0
 15 20  1  0
 16 24  1  0
 16 26  1  0
 17 23  1  0
 17 19  1  0
 18 24  1  0
 19 18  1  0
 20 19  2  0
 21 22  1  0
 21 15  2  0
 22 17  2  0
 23 16  1  0
 24 14  1  0
 26 28  2  0
 27 26  1  0
 29 27  1  0
 30 39  2  0
 30 35  1  0
 31 27  1  0
 31 35  1  0
 32 31  1  0
 33 34  1  0
 33 32  1  0
 34 30  1  0
 35 36  2  0
 36 37  1  0
 38 37  2  0
 39 38  1  0
 40 14  1  0
 40 41  1  0
 40 50  1  0
 41 44  1  0
 42 46  1  0
 42 41  1  0
 43 42  2  0
 46 45  1  0
 48 46  1  0
 48 49  1  0
 48 47  1  0
 50 53  1  1
 50 51  1  0
 52 50  1  0
 54 55  1  0
 56 54  1  0
 56 57  1  0
 58 66  1  0
 59 64  1  0
 60 61  1  0
 60 59  1  0
 62 61  1  0
 62 71  1  0
 62 63  1  0
 64 58  1  0
 64 63  1  0
 65 58  2  0
 66 57  1  0
 66 67  1  0
 68 69  2  0
 69 88  1  0
 70 69  1  0
 70 73  1  0
 71 68  1  0
 71 72  1  0
 72 70  2  0
 73 74  1  0
 74 75  2  0
 76 79  1  0
 76 75  1  0
 77 76  2  0
 78 77  1  0
 78 73  2  0
 79 80  1  0
 80 81  1  0
 81 82  2  0
 83 82  1  0
 83 87  1  0
 84 83  2  0
 85 80  2  0
 85 84  1  0
 86 85  1  0
 88 89  1  0
 89 92  1  0
 89 91  1  0
 90 88  2  0
 93 94  1  0
 93 68  1  0
 95 93  1  0
M  ISO  4  12 101  13 101  58 100  66 100
M  END
>  <TORSDO>  (66) 
F 22

>  <SCORE>  (66) 
-13.183

>  <name>  (66) 
65

>  <ligand_id>  (66) 
65

>  <original_smiles>  (66) 
[H]c1c([H])c([H])c2c(c1[H])C([H])([H])C([H])([H])C([H])([H])C2([H])N([H])C(=O)C1([H])N(C(=O)C([H])(N([H])C(=O)C([H])(N([H])C([H])([H])[H])C([H])([H])[H])C(C([H])([H])[H])(C([H])([H])[H])C([H])([H])[H])C([H])([H])c2c([H])c(OC([H])([H])C([H])([H])N([H])C(=O)c3c([H])c(N([H])C([H])([H])C([H])([H])N([H])C(=O)N4C([H])([H])C([H])([H])C([H])([H])C([H])(n5nc(-c6c([H])c([H])c(Oc7c([H])c([H])c(F)c([H])c7F)c([H])c6[H])c(C(=O)N([H])[H])c5N([H])[H])C4([H])[H])c([H])n3C([H])([H])[H])c([H])c([H])c2C1([H])[H]

>  <smiles>  (66) 
[H]c1c([H])c([H])c2c(c1[H])C([H])([H])C([H])([H])C([H])([H])C2([H])N([H])C(=O)C1([H])N(C(=O)C([H])(N([H])C(=O)C([H])(N([H])C([H])([H])[H])C([H])([H])[H])C(C([H])([H])[H])(C([H])([H])[H])C([H])([H])[H])C([H])([H])c2c([H])c(OC([H])([H])C([H])([H])N([H])C(=O)c3c([H])c(N([H])C([H])([H])C([H])([H])N([H])C(=O)N4C([H])([H])C([H])([H])C([H])([H])C([H])(n5nc(-c6c([H])c([H])c(Oc7c([H])c([H])c(F)c([H])c7F)c([H])c6[H])c(C(=O)N([H])[H])c5N([H])[H])C4([H])[H])c([H])n3C([H])([H])[H])c([H])c([H])c2C1([H])[H]

$$$$
66:0:0
     RDKit          3D

 96107  0  0  1  0  0  0  0  0999 V2000
  -30.8310  -22.3110   16.2550 C   0  0  0  0  0  1  0  0  0  0  0  0
  -30.0490  -22.3390   17.5840 C   0  0  0  0  0  3  0  0  0  0  0  0
  -27.9790  -17.2200   19.7360 C   0  0  0  0  0  2  0  0  0  0  0  0
  -29.7230  -19.6260   20.1840 C   0  0  0  0  0  2  0  0  0  0  0  0
  -28.5110  -18.0020   18.5360 C   0  0  0  0  0  3  0  0  0  0  0  0
  -29.7400  -18.2810   19.4100 C   0  0  0  0  0  3  0  0  0  0  0  0
  -27.7570  -19.1960   18.0350 C   0  0  0  0  0  3  0  0  0  0  0  0
  -28.4780  -20.3880   17.4730 C   0  0  0  0  0  3  0  0  0  0  0  0
  -29.4410  -16.9160   20.1060 C   0  0  0  0  0  3  0  0  0  0  0  0
  -27.8940  -20.4630   18.8350 C   0  0  0  0  0  3  0  0  0  0  0  0
  -29.7770  -20.9000   18.0450 C   0  0  0  0  0  3  0  0  0  0  0  0
  -29.1990  -20.7870   19.4200 N   0  0  0  0  0  0  0  0  0  0  0  0
  -30.0310  -15.6400   19.4700 C   0  0  0  0  0  2  0  0  0  0  0  0
  -30.6650  -14.5400   20.3560 C   0  0  0  0  0  0  0  0  0  0  0  0
  -30.3780  -12.3000   19.4940 C   0  0  0  0  0  2  0  0  0  0  0  0
  -29.4660  -12.4350   18.2550 C   0  0  0  0  0  2  0  0  0  0  0  0
  -27.9820  -12.3520   18.6640 C   0  0  0  0  0  2  0  0  0  0  0  0
  -27.6130  -13.2530   19.8750 C   0  0  0  0  0  3  0  0  0  0  0  0
  -28.6660  -13.1630   21.0030 C   0  0  0  0  0  2  0  0  0  0  0  0
  -30.0110  -13.3560   20.4410 N   0  0  0  0  0  0  0  0  0  0  0  0
  -31.8890  -14.6290   20.4420 O   0  0  0  0  0  0  0  0  0  0  0  0
  -25.2100  -13.8730   20.5650 C   0  0  0  0  0  0  0  0  0  0  0  0
  -24.1350  -13.1080   20.9120 C   0  0  0  0  0  0  0  0  0  0  0  0
  -24.5970  -11.7570   20.9030 C   0  0  0  0  0  0  0  0  0  0  0  0
  -26.2610  -12.9900   20.3550 N   0  0  0  0  0  0  0  0  0  0  0  0
  -25.8930  -11.7130   20.6250 N   0  0  0  0  0  0  0  0  0  0  0  0
  -23.8650  -10.4990   21.0850 C   0  0  0  0  0  0  0  0  0  0  0  0
  -24.2900   -9.5300   22.0190 C   0  0  0  0  0  3  0  0  0  0  0  0
  -23.5600   -8.3360   22.1910 C   0  0  0  0  0  3  0  0  0  0  0  0
  -22.3910   -8.1030   21.4270 C   0  0  0  0  0  0  0  0  0  0  0  0
  -21.9860   -9.0610   20.4830 C   0  0  0  0  0  3  0  0  0  0  0  0
  -22.7170  -10.2470   20.3070 C   0  0  0  0  0  3  0  0  0  0  0  0
  -21.6310   -6.9620   21.5110 O   0  0  0  0  0  0  0  0  0  0  0  0
  -21.5880   -6.2100   22.6560 C   0  0  0  0  0  0  0  0  0  0  0  0
  -21.1820   -6.7590   23.8930 C   0  0  0  0  0  3  0  0  0  0  0  0
  -21.0810   -5.9330   25.0290 C   0  0  0  0  0  3  0  0  0  0  0  0
  -21.3800   -4.5610   24.9310 C   0  0  0  0  0  0  0  0  0  0  0  0
  -21.7820   -4.0130   23.7000 C   0  0  0  0  0  3  0  0  0  0  0  0
  -21.8840   -4.8360   22.5660 C   0  0  0  0  0  0  0  0  0  0  0  0
  -22.2520   -4.3000   21.3780 F   0  0  0  0  0  0  0  0  0  0  0  0
  -21.2760   -3.7650   26.0210 F   0  0  0  0  0  0  0  0  0  0  0  0
  -22.7340  -13.5920   21.1480 C   0  0  0  0  0  0  0  0  0  0  0  0
  -21.9850  -12.9050   22.0040 N   0  0  0  0  0  0  0  0  0  0  0  0
  -22.3090  -14.6140   20.6110 O   0  0  0  0  0  0  0  0  0  0  0  0
  -22.3400  -12.0770   22.4600 H   0  0  0  0  0  0  0  0  0  0  0  0
  -21.0430  -13.2110   22.2030 H   0  0  0  0  0  0  0  0  0  0  0  0
  -25.3590  -15.2440   20.3920 N   0  0  0  0  0  0  0  0  0  0  0  0
  -24.5780  -15.8850   20.4870 H   0  0  0  0  0  0  0  0  0  0  0  0
  -26.2190  -15.7090   20.1420 H   0  0  0  0  0  0  0  0  0  0  0  0
  -30.7710  -23.0960   18.6290 N   0  0  0  0  0  4  0  0  0  0  0  0
  -30.2790  -22.9260   19.4940 H   0  0  0  0  0  0  0  0  0  0  0  0
  -31.6960  -22.7130   18.7390 H   0  0  0  0  0  0  0  0  0  0  0  0
  -30.8750  -24.5560   18.3870 C   0  0  0  0  0  2  0  0  0  0  0  0
  -30.2290  -25.4260   19.4830 C   0  0  0  0  0  2  0  0  0  0  0  0
  -28.7310  -25.7370   19.2900 C   0  0  0  0  0  2  0  0  0  0  0  0
  -28.4610  -26.8230   20.1650 O   0  0  0  0  0  0  0  0  0  0  0  0
  -24.6030  -31.8920   23.2290 C   0  0  0  0  0  0  0  0  0  0  0  0
  -27.2480  -27.4720   20.1280 C   0  0  0  0  0  0  0  0  0  0  0  0
  -23.3850  -30.4790   21.6000 C   0  0  0  0  0  3  0  0  0  0  0  0
  -24.8340  -28.9410   20.1640 C   0  0  0  0  0  0  0  0  0  0  0  0
  -25.9050  -30.8440   21.3870 C   0  0  0  0  0  2  0  0  0  0  0  0
  -25.9870  -29.4740   20.7490 C   0  0  0  0  0  0  0  0  0  0  0  0
  -27.1880  -28.7410   20.7390 C   0  0  0  0  0  3  0  0  0  0  0  0
  -26.0800  -26.9390   19.5380 C   0  0  0  0  0  3  0  0  0  0  0  0
  -24.8730  -27.6700   19.5590 C   0  0  0  0  0  3  0  0  0  0  0  0
  -23.5850  -29.7930   20.2190 C   0  0  0  0  0  2  0  0  0  0  0  0
  -24.6500  -31.0840   22.1320 N   0  0  0  0  0  0  0  0  0  0  0  0
  -23.5220  -32.1860   23.7550 O   0  0  0  0  0  0  0  0  0  0  0  0
  -22.7450  -29.4590   22.5670 C   0  0  0  0  0  0  0  0  0  0  0  0
  -21.4200  -29.2740   22.4470 N   0  0  0  0  0  0  0  0  0  0  0  0
  -23.4350  -28.8370   23.3790 O   0  0  0  0  0  0  0  0  0  0  0  0
  -20.9260  -29.8280   21.7630 H   0  0  0  0  0  0  0  0  0  0  0  0
  -18.0530  -28.0750   22.9570 C   0  0  0  0  0  0  0  0  0  0  0  0
  -20.6100  -28.3360   23.2220 C   0  0  0  0  0  3  0  0  0  0  0  0
  -20.7130  -26.9050   22.6450 C   0  0  0  0  0  2  0  0  0  0  0  0
  -19.6090  -26.5810   21.6350 C   0  0  0  0  0  2  0  0  0  0  0  0
  -18.2290  -26.7250   22.2820 C   0  0  0  0  0  2  0  0  0  0  0  0
  -19.1710  -28.8380   23.3840 C   0  0  0  0  0  0  0  0  0  0  0  0
  -18.9530  -30.1030   23.9740 C   0  0  0  0  0  3  0  0  0  0  0  0
  -17.6480  -30.6040   24.1420 C   0  0  0  0  0  3  0  0  0  0  0  0
  -16.5440  -29.8370   23.7310 C   0  0  0  0  0  3  0  0  0  0  0  0
  -16.7470  -28.5750   23.1450 C   0  0  0  0  0  3  0  0  0  0  0  0
  -25.8970  -32.5120   23.8470 C   0  0  0  0  0  3  0  0  0  0  0  0
  -25.5960  -33.9090   24.1860 N   0  0  0  0  0  0  0  0  0  0  0  0
  -25.9230  -34.9620   23.4240 C   0  0  0  0  0  0  0  0  0  0  0  0
  -26.5820  -34.8580   22.3870 O   0  0  0  0  0  0  0  0  0  0  0  0
  -25.0090  -34.0630   24.9920 H   0  0  0  0  0  0  0  0  0  0  0  0
  -24.1910  -36.7520   23.0870 C   0  0  0  0  0  1  0  0  0  0  0  0
  -25.4390  -36.3480   23.8880 C   0  0  0  0  0  3  0  0  0  0  0  0
  -27.5820  -37.2290   24.7010 C   0  0  0  0  0  1  0  0  0  0  0  0
  -26.4710  -37.4010   23.7680 N   0  0  0  0  0  0  0  0  0  0  0  0
  -26.0660  -38.3200   23.9250 H   0  0  0  0  0  0  0  0  0  0  0  0
  -26.4260  -31.7330   25.1140 C   0  0  1  0  0  0  0  0  0  0  0  0
  -25.3450  -31.4930   26.1910 C   0  0  0  0  0  1  0  0  0  0  0  0
  -27.0030  -30.3570   24.7080 C   0  0  0  0  0  1  0  0  0  0  0  0
  -27.5870  -32.5210   25.7670 C   0  0  0  0  0  1  0  0  0  0  0  0
  2  1  1  0
  2 11  1  0
  2 50  1  0
  3  9  1  0
  5  6  1  0
  5  3  1  0
  6  9  1  0
  6  4  1  0
  7  5  1  0
  7 10  1  0
  8  7  1  0
  8 11  1  0
  8 10  1  0
 10 12  1  0
 11 12  1  0
 12  4  1  0
 13  9  1  0
 13 14  1  0
 14 20  1  0
 14 21  2  0
 15 20  1  0
 16 17  1  0
 16 15  1  0
 17 18  1  0
 18 25  1  0
 18 19  1  0
 20 19  1  0
 22 23  2  0
 23 42  1  0
 24 23  1  0
 24 27  1  0
 25 22  1  0
 25 26  1  0
 26 24  2  0
 27 28  1  0
 28 29  2  0
 30 33  1  0
 30 29  1  0
 31 30  2  0
 32 31  1  0
 32 27  2  0
 33 34  1  0
 34 35  1  0
 35 36  2  0
 37 36  1  0
 37 41  1  0
 38 37  2  0
 39 34  2  0
 39 38  1  0
 40 39  1  0
 42 43  1  0
 43 46  1  0
 43 45  1  0
 44 42  2  0
 47 48  1  0
 47 22  1  0
 49 47  1  0
 50 52  1  0
 50 51  1  0
 53 50  1  0
 53 54  1  0
 55 54  1  0
 55 56  1  0
 57 68  2  0
 57 83  1  0
 58 56  1  0
 58 63  1  0
 59 67  1  0
 59 69  1  0
 60 66  1  0
 60 62  1  0
 61 67  1  0
 62 61  1  0
 63 62  2  0
 64 65  1  0
 64 58  2  0
 65 60  2  0
 66 59  1  0
 67 57  1  0
 69 71  2  0
 70 69  1  0
 70 74  1  0
 72 70  1  0
 73 82  2  0
 73 78  1  0
 74 78  1  0
 75 74  1  0
 76 77  1  0
 76 75  1  0
 77 73  1  0
 78 79  2  0
 79 80  1  0
 81 80  2  0
 82 81  1  0
 83 84  1  0
 83 93  1  0
 84 87  1  0
 85 89  1  0
 85 84  1  0
 86 85  2  0
 88 89  1  0
 91 89  1  0
 91 92  1  0
 91 90  1  0
 93 96  1  1
 93 94  1  0
 95 93  1  0
M  ISO  4  13 100  14 100  55 101  56 101
M  END
>  <TORSDO>  (67) 
F 22

>  <SCORE>  (67) 
-13.459

>  <name>  (67) 
66

>  <ligand_id>  (67) 
66

>  <original_smiles>  (67) 
[H]c1c([H])c([H])c2c(c1[H])C([H])([H])C([H])([H])C([H])([H])C2([H])N([H])C(=O)C1([H])N(C(=O)C([H])(N([H])C(=O)C([H])(N([H])C([H])([H])[H])C([H])([H])[H])C(C([H])([H])[H])(C([H])([H])[H])C([H])([H])[H])C([H])([H])c2c([H])c(OC([H])([H])C([H])([H])C([H])([H])[N+]([H])([H])C([H])(C([H])([H])[H])C3([H])N4C([H])([H])C5([H])C([H])(C([H])([H])C(=O)N6C([H])([H])C([H])([H])C([H])([H])C([H])(n7nc(-c8c([H])c([H])c(Oc9c([H])c([H])c(F)c([H])c9F)c([H])c8[H])c(C(=O)N([H])[H])c7N([H])[H])C6([H])[H])C([H])([H])C5([H])C5([H])C4([H])C35[H])c([H])c([H])c2C1([H])[H]

>  <smiles>  (67) 
[H]c1c([H])c([H])c2c(c1[H])C([H])([H])C([H])([H])C([H])([H])C2([H])N([H])C(=O)C1([H])N(C(=O)C([H])(N([H])C(=O)C([H])(N([H])C([H])([H])[H])C([H])([H])[H])C(C([H])([H])[H])(C([H])([H])[H])C([H])([H])[H])C([H])([H])c2c([H])c(OC([H])([H])C([H])([H])C([H])([H])[N+]([H])([H])C([H])(C([H])([H])[H])C3([H])N4C([H])([H])C5([H])C([H])(C([H])([H])C(=O)N6C([H])([H])C([H])([H])C([H])([H])C([H])(n7nc(-c8c([H])c([H])c(Oc9c([H])c([H])c(F)c([H])c9F)c([H])c8[H])c(C(=O)N([H])[H])c7N([H])[H])C6([H])[H])C([H])([H])C5([H])C5([H])C4([H])C35[H])c([H])c([H])c2C1([H])[H]

$$$$
67:0:0
     RDKit          3D

 92 98  0  0  1  0  0  0  0  0999 V2000
  -29.7000  -20.1470   21.8190 C   0  0  0  0  0  2  0  0  0  0  0  0
  -28.4040  -21.3220   21.2700 C   0  0  0  0  0  2  0  0  0  0  0  0
  -30.7120  -20.5070   18.9680 C   0  0  0  0  0  2  0  0  0  0  0  0
  -31.1170  -19.7490   20.6410 C   0  0  0  0  0  3  0  0  0  0  0  0
  -28.3670  -22.5990   20.0160 C   0  0  0  0  0  2  0  0  0  0  0  0
  -29.2840  -21.6400   18.8210 C   0  0  0  0  0  3  0  0  0  0  0  0
  -32.4940  -19.5500   21.0490 C   0  0  0  0  0  0  0  0  0  0  0  0
  -33.0420  -18.5450   21.5040 O   0  0  0  0  0  0  0  0  0  0  0  0
  -33.0820  -20.9490   21.0670 C   0  0  0  0  0  2  0  0  0  0  0  0
  -31.9560  -21.8820   21.6060 C   0  0  0  0  0  2  0  0  0  0  0  0
  -30.5080  -21.7830   20.8780 C   0  0  0  0  0  1  0  0  0  0  0  0
  -29.8120  -17.2060   19.9260 C   0  0  0  0  0  0  0  0  0  0  0  0
  -30.2650  -14.3620   19.1400 C   0  0  0  0  0  2  0  0  0  0  0  0
  -29.5600  -13.3600   18.1090 C   0  0  0  0  0  2  0  0  0  0  0  0
  -28.3130  -12.6850   18.6760 C   0  0  0  0  0  2  0  0  0  0  0  0
  -27.6260  -13.7010   19.5940 C   0  0  0  0  0  3  0  0  0  0  0  0
  -28.5540  -14.5740   20.5530 C   0  0  0  0  0  2  0  0  0  0  0  0
  -29.4250  -15.6140   19.7820 N   0  0  0  0  0  0  0  0  0  0  0  0
  -31.0550  -16.8830   19.8720 O   0  0  0  0  0  0  0  0  0  0  0  0
  -29.1780  -18.9990   19.9870 N   0  0  0  0  0  2  0  0  0  0  0  0
  -28.1790  -19.0640   19.8610 H   0  0  0  0  0  0  0  0  0  0  0  0
  -25.3000  -14.0060   20.4910 C   0  0  0  0  0  0  0  0  0  0  0  0
  -24.2900  -13.1680   20.8630 C   0  0  0  0  0  0  0  0  0  0  0  0
  -24.8070  -11.8390   20.7450 C   0  0  0  0  0  0  0  0  0  0  0  0
  -26.3770  -13.2070   20.1810 N   0  0  0  0  0  0  0  0  0  0  0  0
  -26.0930  -11.8810   20.3730 N   0  0  0  0  0  0  0  0  0  0  0  0
  -24.1110  -10.5470   20.9150 C   0  0  0  0  0  0  0  0  0  0  0  0
  -24.5040   -9.6090   21.8960 C   0  0  0  0  0  3  0  0  0  0  0  0
  -23.7920   -8.3990   22.0650 C   0  0  0  0  0  3  0  0  0  0  0  0
  -22.6700   -8.1130   21.2520 C   0  0  0  0  0  0  0  0  0  0  0  0
  -22.2900   -9.0400   20.2640 C   0  0  0  0  0  3  0  0  0  0  0  0
  -23.0020  -10.2410   20.0960 C   0  0  0  0  0  3  0  0  0  0  0  0
  -21.9380   -6.9510   21.3240 O   0  0  0  0  0  0  0  0  0  0  0  0
  -21.7420   -6.2910   22.5120 C   0  0  0  0  0  0  0  0  0  0  0  0
  -21.0680   -6.8960   23.5960 C   0  0  0  0  0  3  0  0  0  0  0  0
  -20.8260   -6.1590   24.7740 C   0  0  0  0  0  3  0  0  0  0  0  0
  -21.2480   -4.8200   24.8670 C   0  0  0  0  0  0  0  0  0  0  0  0
  -21.9120   -4.2130   23.7870 C   0  0  0  0  0  3  0  0  0  0  0  0
  -22.1550   -4.9470   22.6110 C   0  0  0  0  0  0  0  0  0  0  0  0
  -22.7760   -4.3500   21.5650 F   0  0  0  0  0  0  0  0  0  0  0  0
  -21.0100   -4.1110   25.9960 F   0  0  0  0  0  0  0  0  0  0  0  0
  -22.8930  -13.5900   21.2040 C   0  0  0  0  0  0  0  0  0  0  0  0
  -22.2200  -12.8380   22.0660 N   0  0  0  0  0  0  0  0  0  0  0  0
  -22.4120  -14.6300   20.7520 O   0  0  0  0  0  0  0  0  0  0  0  0
  -22.6240  -11.9950   22.4460 H   0  0  0  0  0  0  0  0  0  0  0  0
  -21.2870  -13.1030   22.3480 H   0  0  0  0  0  0  0  0  0  0  0  0
  -25.3930  -15.3880   20.3470 N   0  0  0  0  0  0  0  0  0  0  0  0
  -24.6110  -16.0150   20.5040 H   0  0  0  0  0  0  0  0  0  0  0  0
  -26.2160  -15.8630   19.9990 H   0  0  0  0  0  0  0  0  0  0  0  0
  -29.2030  -22.1710   17.5690 O   0  0  0  0  0  0  0  0  0  0  0  0
  -29.6840  -21.6480   16.9360 H   0  0  0  0  0  0  0  0  0  0  0  0
  -28.1060  -24.5500   20.0770 O   0  0  0  0  0  1  0  0  0  0  0  0
  -24.7740  -31.9480   23.2030 C   0  0  0  0  0  0  0  0  0  0  0  0
  -27.1910  -26.1330   20.1740 C   0  0  0  0  0  0  0  0  0  0  0  0
  -23.5810  -30.5280   21.6130 C   0  0  0  0  0  3  0  0  0  0  0  0
  -25.0010  -28.7180   20.2060 C   0  0  0  0  0  0  0  0  0  0  0  0
  -26.1890  -30.4020   21.5540 C   0  0  0  0  0  2  0  0  0  0  0  0
  -26.2200  -28.8880   20.8690 C   0  0  0  0  0  0  0  0  0  0  0  0
  -27.2450  -27.6610   20.8030 C   0  0  0  0  0  3  0  0  0  0  0  0
  -25.9390  -26.4090   19.4550 C   0  0  0  0  0  3  0  0  0  0  0  0
  -24.9520  -27.5080   19.4690 C   0  0  0  0  0  3  0  0  0  0  0  0
  -23.8350  -29.7730   20.2620 C   0  0  0  0  0  2  0  0  0  0  0  0
  -24.8890  -31.0040   22.1800 N   0  0  0  0  0  0  0  0  0  0  0  0
  -23.6600  -32.3420   23.5770 O   0  0  0  0  0  0  0  0  0  0  0  0
  -22.7910  -29.6300   22.6150 C   0  0  0  0  0  0  0  0  0  0  0  0
  -21.4530  -29.4880   22.4800 N   0  0  0  0  0  0  0  0  0  0  0  0
  -23.4130  -29.0420   23.5000 O   0  0  0  0  0  0  0  0  0  0  0  0
  -20.9880  -30.0080   21.7510 H   0  0  0  0  0  0  0  0  0  0  0  0
  -18.0790  -28.1450   22.9470 C   0  0  0  0  0  0  0  0  0  0  0  0
  -20.6240  -28.5420   23.2530 C   0  0  0  0  0  3  0  0  0  0  0  0
  -20.7950  -27.1000   22.7180 C   0  0  0  0  0  2  0  0  0  0  0  0
  -19.7360  -26.7130   21.6800 C   0  0  0  0  0  2  0  0  0  0  0  0
  -18.3340  -26.8000   22.2860 C   0  0  0  0  0  2  0  0  0  0  0  0
  -19.1520  -28.9690   23.3840 C   0  0  0  0  0  0  0  0  0  0  0  0
  -18.8540  -30.2170   23.9730 C   0  0  0  0  0  3  0  0  0  0  0  0
  -17.5200  -30.6460   24.1200 C   0  0  0  0  0  3  0  0  0  0  0  0
  -16.4640  -29.8220   23.6910 C   0  0  0  0  0  3  0  0  0  0  0  0
  -16.7450  -28.5720   23.1130 C   0  0  0  0  0  3  0  0  0  0  0  0
  -25.9950  -32.6130   23.9270 C   0  0  0  0  0  3  0  0  0  0  0  0
  -25.6650  -34.0250   24.2640 N   0  0  0  0  0  0  0  0  0  0  0  0
  -26.0560  -35.1130   23.5810 C   0  0  0  0  0  0  0  0  0  0  0  0
  -26.7630  -35.0330   22.5750 O   0  0  0  0  0  0  0  0  0  0  0  0
  -25.0360  -34.1590   25.0410 H   0  0  0  0  0  0  0  0  0  0  0  0
  -24.3990  -36.9930   23.2450 C   0  0  0  0  0  1  0  0  0  0  0  0
  -25.5960  -36.5050   24.0800 C   0  0  0  0  0  3  0  0  0  0  0  0
  -27.7240  -37.3060   25.0230 C   0  0  0  0  0  1  0  0  0  0  0  0
  -26.6580  -37.5390   24.0520 N   0  0  0  0  0  0  0  0  0  0  0  0
  -26.2650  -38.4590   24.2340 H   0  0  0  0  0  0  0  0  0  0  0  0
  -26.4280  -31.8760   25.2570 C   0  0  1  0  0  0  0  0  0  0  0  0
  -25.2740  -31.6710   26.2670 C   0  0  0  0  0  1  0  0  0  0  0  0
  -27.0280  -30.4870   24.9610 C   0  0  0  0  0  1  0  0  0  0  0  0
  -27.5490  -32.6820   25.9610 C   0  0  0  0  0  1  0  0  0  0  0  0
  2  1  1  0
  3  4  1  0
  4  7  1  0
  4  1  1  0
  5  2  1  0
  6 50  1  0
  6  3  1  0
  6  5  1  0
  7  9  1  0
  7  8  2  0
  9 10  1  0
 11 10  1  0
 12 20  1  0
 13 18  1  0
 14 15  1  0
 14 13  1  0
 16 15  1  0
 16 25  1  0
 16 17  1  0
 18 12  1  0
 18 17  1  0
 19 12  2  0
 21 20  1  0
 22 23  2  0
 23 42  1  0
 24 23  1  0
 24 27  1  0
 25 26  1  0
 25 22  1  0
 26 24  2  0
 27 28  1  0
 28 29  2  0
 30 33  1  0
 30 29  1  0
 31 30  2  0
 32 31  1  0
 32 27  2  0
 33 34  1  0
 34 39  2  0
 34 35  1  0
 35 36  2  0
 36 37  1  0
 37 41  1  0
 38 37  2  0
 39 38  1  0
 40 39  1  0
 42 43  1  0
 43 46  1  0
 43 45  1  0
 44 42  2  0
 47 22  1  0
 47 48  1  0
 49 47  1  0
 51 50  1  0
 52 54  1  0
 53 64  2  0
 54 59  1  0
 55 63  1  0
 55 65  1  0
 56 62  1  0
 56 58  1  0
 57 63  1  0
 58 57  1  0
 59 58  2  0
 60 61  1  0
 60 54  2  0
 61 56  2  0
 62 55  1  0
 63 53  1  0
 65 67  2  0
 66 65  1  0
 68 66  1  0
 69 78  2  0
 69 74  1  0
 70 66  1  0
 70 74  1  0
 71 70  1  0
 72 73  1  0
 72 71  1  0
 73 69  1  0
 74 75  2  0
 75 76  1  0
 77 76  2  0
 78 77  1  0
 79 53  1  0
 79 80  1  0
 79 89  1  0
 80 83  1  0
 81 85  1  0
 81 80  1  0
 82 81  2  0
 85 84  1  0
 87 85  1  0
 87 88  1  0
 87 86  1  0
 89 92  1  1
 89 90  1  0
 91 89  1  0
M  ISO  4   5 101  12 100  20 100  52 101
M  END
>  <TORSDO>  (68) 
F 21

>  <SCORE>  (68) 
-14.526

>  <name>  (68) 
67

>  <ligand_id>  (68) 
67

>  <original_smiles>  (68) 
[H]Oc1c([H])c(C(=O)C([H])([H])C([H])([H])C([H])([H])N([H])C(=O)N2C([H])([H])C([H])([H])C([H])([H])C([H])(n3nc(-c4c([H])c([H])c(Oc5c([H])c([H])c(F)c([H])c5F)c([H])c4[H])c(C(=O)N([H])[H])c3N([H])[H])C2([H])[H])c([H])c([H])c1Oc1c([H])c([H])c2c(c1[H])C([H])([H])N(C(=O)C([H])(N([H])C(=O)C([H])(N([H])C([H])([H])[H])C([H])([H])[H])C(C([H])([H])[H])(C([H])([H])[H])C([H])([H])[H])C([H])(C(=O)N([H])C1([H])c3c([H])c([H])c([H])c([H])c3C([H])([H])C([H])([H])C1([H])[H])C2([H])[H]

>  <smiles>  (68) 
[H]Oc1c([H])c(C(=O)C([H])([H])C([H])([H])C([H])([H])N([H])C(=O)N2C([H])([H])C([H])([H])C([H])([H])C([H])(n3nc(-c4c([H])c([H])c(Oc5c([H])c([H])c(F)c([H])c5F)c([H])c4[H])c(C(=O)N([H])[H])c3N([H])[H])C2([H])[H])c([H])c([H])c1Oc1c([H])c([H])c2c(c1[H])C([H])([H])N(C(=O)C([H])(N([H])C(=O)C([H])(N([H])C([H])([H])[H])C([H])([H])[H])C(C([H])([H])[H])(C([H])([H])[H])C([H])([H])[H])C([H])(C(=O)N([H])C1([H])c3c([H])c([H])c([H])c([H])c3C([H])([H])C([H])([H])C1([H])[H])C2([H])[H]

$$$$
68:0:0
     RDKit          3D

 94102  0  0  1  0  0  0  0  0999 V2000
  -30.6990  -22.3320   21.2330 C   0  0  0  0  0  3  0  0  0  0  0  0
  -30.1990  -23.6650   21.3030 C   0  0  0  0  0  3  0  0  0  0  0  0
  -29.8890  -21.2310   20.8380 C   0  0  0  0  0  0  0  0  0  0  0  0
  -28.8610  -23.9860   20.9530 C   0  0  0  0  0  0  0  0  0  0  0  0
  -28.0530  -22.8820   20.5360 C   0  0  0  0  0  0  0  0  0  0  0  0
  -28.5570  -21.5440   20.4750 C   0  0  0  0  0  0  0  0  0  0  0  0
  -27.7330  -20.5590   20.0370 F   0  0  0  0  0  0  0  0  0  0  0  0
  -26.7130  -23.0610   20.1870 N   0  0  0  0  0  0  0  0  0  0  0  0
  -26.3130  -23.9800   20.0360 H   0  0  0  0  0  0  0  0  0  0  0  0
  -26.2250  -22.2910   19.7410 H   0  0  0  0  0  0  0  0  0  0  0  0
  -30.5280  -19.8440   20.6740 C   0  0  0  0  0  0  0  0  0  0  0  0
  -31.6870  -19.7680   20.2490 O   0  0  0  0  0  0  0  0  0  0  0  0
  -29.8330  -18.4830   21.0760 C   0  0  0  0  0  2  0  0  0  0  0  0
  -30.5220  -17.1710   20.4700 C   0  0  0  0  0  2  0  0  0  0  0  0
  -30.6800  -14.6370   20.4110 C   0  0  0  0  0  0  0  0  0  0  0  0
  -30.3780  -12.4240   19.3280 C   0  0  0  0  0  2  0  0  0  0  0  0
  -29.4380  -12.5560   18.1100 C   0  0  0  0  0  2  0  0  0  0  0  0
  -27.9660  -12.4110   18.5460 C   0  0  0  0  0  2  0  0  0  0  0  0
  -27.6190  -13.2780   19.7870 C   0  0  0  0  0  3  0  0  0  0  0  0
  -28.6830  -13.1360   20.9010 C   0  0  0  0  0  2  0  0  0  0  0  0
  -29.9900  -13.4560   20.3140 N   0  0  0  0  0  0  0  0  0  0  0  0
  -31.8350  -14.7270   19.9890 O   0  0  0  0  0  0  0  0  0  0  0  0
  -30.0120  -15.7800   20.7770 N   0  0  0  0  0  0  0  0  0  0  0  0
  -29.0650  -15.6820   21.1130 H   0  0  0  0  0  0  0  0  0  0  0  0
  -25.2250  -13.8700   20.5060 C   0  0  0  0  0  0  0  0  0  0  0  0
  -24.1590  -13.0960   20.8800 C   0  0  0  0  0  0  0  0  0  0  0  0
  -24.6230  -11.7450   20.8520 C   0  0  0  0  0  0  0  0  0  0  0  0
  -26.2720  -12.9920   20.2750 N   0  0  0  0  0  0  0  0  0  0  0  0
  -25.9150  -11.7110   20.5440 N   0  0  0  0  0  0  0  0  0  0  0  0
  -23.8990  -10.4820   21.0450 C   0  0  0  0  0  0  0  0  0  0  0  0
  -24.3400   -9.5120   21.9730 C   0  0  0  0  0  3  0  0  0  0  0  0
  -23.6170   -8.3130   22.1560 C   0  0  0  0  0  3  0  0  0  0  0  0
  -22.4380   -8.0760   21.4110 C   0  0  0  0  0  0  0  0  0  0  0  0
  -22.0150   -9.0340   20.4730 C   0  0  0  0  0  3  0  0  0  0  0  0
  -22.7380  -10.2250   20.2890 C   0  0  0  0  0  3  0  0  0  0  0  0
  -21.6850   -6.9300   21.5020 O   0  0  0  0  0  0  0  0  0  0  0  0
  -21.6550   -6.1790   22.6500 C   0  0  0  0  0  0  0  0  0  0  0  0
  -21.2540   -6.7270   23.8880 C   0  0  0  0  0  3  0  0  0  0  0  0
  -21.1720   -5.9030   25.0290 C   0  0  0  0  0  3  0  0  0  0  0  0
  -21.4770   -4.5320   24.9300 C   0  0  0  0  0  0  0  0  0  0  0  0
  -21.8700   -3.9840   23.6980 C   0  0  0  0  0  3  0  0  0  0  0  0
  -21.9540   -4.8050   22.5600 C   0  0  0  0  0  0  0  0  0  0  0  0
  -22.3130   -4.2670   21.3680 F   0  0  0  0  0  0  0  0  0  0  0  0
  -21.3890   -3.7390   26.0240 F   0  0  0  0  0  0  0  0  0  0  0  0
  -22.7620  -13.5710   21.1530 C   0  0  0  0  0  0  0  0  0  0  0  0
  -22.0340  -12.8720   22.0190 N   0  0  0  0  0  0  0  0  0  0  0  0
  -22.3220  -14.5950   20.6320 O   0  0  0  0  0  0  0  0  0  0  0  0
  -22.4030  -12.0400   22.4550 H   0  0  0  0  0  0  0  0  0  0  0  0
  -21.0960  -13.1730   22.2440 H   0  0  0  0  0  0  0  0  0  0  0  0
  -25.3890  -15.2380   20.3200 N   0  0  0  0  0  0  0  0  0  0  0  0
  -24.6280  -15.9000   20.4330 H   0  0  0  0  0  0  0  0  0  0  0  0
  -26.2300  -15.6650   19.9530 H   0  0  0  0  0  0  0  0  0  0  0  0
  -28.2720  -25.4220   21.2330 C   0  0  0  0  0  2  0  0  0  0  0  0
  -28.3680  -26.5130   20.2490 O   0  0  0  0  0  0  0  0  0  0  0  0
  -24.6060  -31.8860   23.2400 C   0  0  0  0  0  0  0  0  0  0  0  0
  -27.2580  -27.3600   20.2130 C   0  0  0  0  0  0  0  0  0  0  0  0
  -23.4080  -30.4730   21.6060 C   0  0  0  0  0  3  0  0  0  0  0  0
  -24.8720  -28.9260   20.1860 C   0  0  0  0  0  0  0  0  0  0  0  0
  -25.9410  -30.8160   21.4150 C   0  0  0  0  0  2  0  0  0  0  0  0
  -26.0340  -29.4350   20.7820 C   0  0  0  0  0  0  0  0  0  0  0  0
  -27.2320  -28.6670   20.7860 C   0  0  0  0  0  3  0  0  0  0  0  0
  -26.0790  -26.8910   19.5950 C   0  0  0  0  0  3  0  0  0  0  0  0
  -24.8940  -27.6570   19.5820 C   0  0  0  0  0  3  0  0  0  0  0  0
  -23.6260  -29.7910   20.2280 C   0  0  0  0  0  2  0  0  0  0  0  0
  -24.6720  -31.0710   22.1470 N   0  0  0  0  0  0  0  0  0  0  0  0
  -23.5180  -32.1810   23.7500 O   0  0  0  0  0  0  0  0  0  0  0  0
  -22.7510  -29.4560   22.5700 C   0  0  0  0  0  0  0  0  0  0  0  0
  -21.4230  -29.2790   22.4480 N   0  0  0  0  0  0  0  0  0  0  0  0
  -23.4330  -28.8260   23.3830 O   0  0  0  0  0  0  0  0  0  0  0  0
  -20.9330  -29.8340   21.7610 H   0  0  0  0  0  0  0  0  0  0  0  0
  -18.0470  -28.0850   22.9530 C   0  0  0  0  0  0  0  0  0  0  0  0
  -20.6060  -28.3390   23.2180 C   0  0  0  0  0  3  0  0  0  0  0  0
  -20.7060  -26.9090   22.6390 C   0  0  0  0  0  2  0  0  0  0  0  0
  -19.6010  -26.5930   21.6270 C   0  0  0  0  0  2  0  0  0  0  0  0
  -18.2200  -26.7380   22.2740 C   0  0  0  0  0  2  0  0  0  0  0  0
  -19.1670  -28.8450   23.3830 C   0  0  0  0  0  0  0  0  0  0  0  0
  -18.9520  -30.1080   23.9770 C   0  0  0  0  0  3  0  0  0  0  0  0
  -17.6470  -30.6090   24.1480 C   0  0  0  0  0  3  0  0  0  0  0  0
  -16.5410  -29.8460   23.7340 C   0  0  0  0  0  3  0  0  0  0  0  0
  -16.7410  -28.5860   23.1420 C   0  0  0  0  0  3  0  0  0  0  0  0
  -25.8880  -32.5120   23.8730 C   0  0  0  0  0  3  0  0  0  0  0  0
  -25.5800  -33.9110   24.2020 N   0  0  0  0  0  0  0  0  0  0  0  0
  -25.9110  -34.9610   23.4400 C   0  0  0  0  0  0  0  0  0  0  0  0
  -26.5820  -34.8560   22.4100 O   0  0  0  0  0  0  0  0  0  0  0  0
  -24.9880  -34.0700   25.0050 H   0  0  0  0  0  0  0  0  0  0  0  0
  -24.1820  -36.7490   23.0790 C   0  0  0  0  0  1  0  0  0  0  0  0
  -25.4230  -36.3510   23.8930 C   0  0  0  0  0  3  0  0  0  0  0  0
  -27.5590  -37.2380   24.7160 C   0  0  0  0  0  1  0  0  0  0  0  0
  -26.4560  -37.4030   23.7730 N   0  0  0  0  0  0  0  0  0  0  0  0
  -26.0520  -38.3240   23.9180 H   0  0  0  0  0  0  0  0  0  0  0  0
  -26.3990  -31.7410   25.1520 C   0  0  1  0  0  0  0  0  0  0  0  0
  -25.3050  -31.5040   26.2170 C   0  0  0  0  0  1  0  0  0  0  0  0
  -26.9790  -30.3630   24.7590 C   0  0  0  0  0  1  0  0  0  0  0  0
  -27.5510  -32.5330   25.8160 C   0  0  0  0  0  1  0  0  0  0  0  0
  1  2  1  0
  3  1  2  0
  4 53  1  0
  4  2  2  0
  5  4  1  0
  6  5  2  0
  6  3  1  0
  7  6  1  0
  8  5  1  0
  9  8  1  0
 10  8  1  0
 11  3  1  0
 11 13  1  0
 12 11  2  0
 14 23  1  0
 14 13  1  0
 15 23  1  0
 16 21  1  0
 17 18  1  0
 17 16  1  0
 19 18  1  0
 19 28  1  0
 19 20  1  0
 21 15  1  0
 21 20  1  0
 22 15  2  0
 23 24  1  0
 25 26  2  0
 26 45  1  0
 27 26  1  0
 27 30  1  0
 28 25  1  0
 28 29  1  0
 29 27  2  0
 30 31  1  0
 31 32  2  0
 33 36  1  0
 33 32  1  0
 34 33  2  0
 35 34  1  0
 35 30  2  0
 36 37  1  0
 37 38  1  0
 38 39  2  0
 40 39  1  0
 40 44  1  0
 41 40  2  0
 42 37  2  0
 42 41  1  0
 43 42  1  0
 45 46  1  0
 46 49  1  0
 46 48  1  0
 47 45  2  0
 50 51  1  0
 50 25  1  0
 52 50  1  0
 54 53  1  0
 55 66  2  0
 56 54  1  0
 56 61  1  0
 57 65  1  0
 57 67  1  0
 58 64  1  0
 58 60  1  0
 59 65  1  0
 60 61  2  0
 60 59  1  0
 62 56  2  0
 63 62  1  0
 63 58  2  0
 64 57  1  0
 65 55  1  0
 67 69  2  0
 68 67  1  0
 70 68  1  0
 71 80  2  0
 71 76  1  0
 72 68  1  0
 72 76  1  0
 73 72  1  0
 74 75  1  0
 74 73  1  0
 75 71  1  0
 76 77  2  0
 77 78  1  0
 79 78  2  0
 80 79  1  0
 81 55  1  0
 81 82  1  0
 81 91  1  0
 82 85  1  0
 83 87  1  0
 83 82  1  0
 84 83  2  0
 87 86  1  0
 89 87  1  0
 89 90  1  0
 89 88  1  0
 91 94  1  1
 91 92  1  0
 93 91  1  0
M  ISO  4  15 100  23 100  53 101  54 101
M  END
>  <TORSDO>  (69) 
F 21

>  <SCORE>  (69) 
-13.836

>  <name>  (69) 
68

>  <ligand_id>  (69) 
68

>  <original_smiles>  (69) 
[H]c1c([H])c([H])c2c(c1[H])C([H])([H])C([H])([H])C([H])([H])C2([H])N([H])C(=O)C1([H])N(C(=O)C([H])(N([H])C(=O)C([H])(N([H])C([H])([H])[H])C([H])([H])[H])C(C([H])([H])[H])(C([H])([H])[H])C([H])([H])[H])C([H])([H])c2c([H])c(OC([H])([H])c3c([H])c([H])c(C(=O)C([H])([H])C([H])([H])N([H])C(=O)N4C([H])([H])C([H])([H])C([H])([H])C([H])(n5nc(-c6c([H])c([H])c(Oc7c([H])c([H])c(F)c([H])c7F)c([H])c6[H])c(C(=O)N([H])[H])c5N([H])[H])C4([H])[H])c(F)c3N([H])[H])c([H])c([H])c2C1([H])[H]

>  <smiles>  (69) 
[H]c1c([H])c([H])c2c(c1[H])C([H])([H])C([H])([H])C([H])([H])C2([H])N([H])C(=O)C1([H])N(C(=O)C([H])(N([H])C(=O)C([H])(N([H])C([H])([H])[H])C([H])([H])[H])C(C([H])([H])[H])(C([H])([H])[H])C([H])([H])[H])C([H])([H])c2c([H])c(OC([H])([H])c3c([H])c([H])c(C(=O)C([H])([H])C([H])([H])N([H])C(=O)N4C([H])([H])C([H])([H])C([H])([H])C([H])(n5nc(-c6c([H])c([H])c(Oc7c([H])c([H])c(F)c([H])c7F)c([H])c6[H])c(C(=O)N([H])[H])c5N([H])[H])C4([H])[H])c(F)c3N([H])[H])c([H])c([H])c2C1([H])[H]

$$$$
69:0:0
     RDKit          3D

 95103  0  0  1  0  0  0  0  0999 V2000
  -29.6610  -20.9730   19.6450 C   0  0  0  0  0  0  0  0  0  0  0  0
  -28.8320  -20.7380   20.6810 N   0  0  0  0  0  4  0  0  0  0  0  0
  -29.9100  -22.2580   19.2690 N   0  0  0  0  0  0  0  0  0  0  0  0
  -28.5420  -19.7870   20.8920 H   0  0  0  0  0  0  0  0  0  0  0  0
  -28.4150  -21.4690   21.2350 H   0  0  0  0  0  0  0  0  0  0  0  0
  -30.3160  -22.4100   18.3510 H   0  0  0  0  0  0  0  0  0  0  0  0
  -30.9680  -18.6940   19.7560 C   0  0  0  0  0  0  0  0  0  0  0  0
  -31.4440  -20.2670   17.9940 C   0  0  0  0  0  2  0  0  0  0  0  0
  -32.6850  -20.1440   18.8800 C   0  0  0  0  0  2  0  0  0  0  0  0
  -30.2890  -19.7880   18.9010 C   0  0  0  0  0  3  0  0  0  0  0  0
  -32.4870  -18.7930   19.5750 C   0  0  0  0  0  3  0  0  0  0  0  0
  -33.0670  -17.6660   18.6900 C   0  0  0  0  0  1  0  0  0  0  0  0
  -30.3110  -17.8730   20.4930 N   0  0  0  0  0  0  0  0  0  0  0  0
  -30.9660  -16.9170   21.3890 C   0  0  0  0  0  2  0  0  0  0  0  0
  -30.1920  -15.5640   21.4410 C   0  0  0  0  0  2  0  0  0  0  0  0
  -30.7140  -14.4550   20.5020 C   0  0  0  0  0  0  0  0  0  0  0  0
  -30.3410  -12.3750   19.2250 C   0  0  0  0  0  2  0  0  0  0  0  0
  -29.3850  -12.6650   18.0540 C   0  0  0  0  0  2  0  0  0  0  0  0
  -27.9220  -12.4900   18.4980 C   0  0  0  0  0  2  0  0  0  0  0  0
  -27.6110  -13.2810   19.7990 C   0  0  0  0  0  3  0  0  0  0  0  0
  -28.6780  -13.0250   20.8880 C   0  0  0  0  0  2  0  0  0  0  0  0
  -30.0010  -13.3120   20.3070 N   0  0  0  0  0  0  0  0  0  0  0  0
  -31.7820  -14.6450   19.9130 O   0  0  0  0  0  0  0  0  0  0  0  0
  -25.2140  -13.8750   20.5130 C   0  0  0  0  0  0  0  0  0  0  0  0
  -24.1510  -13.0970   20.8780 C   0  0  0  0  0  0  0  0  0  0  0  0
  -24.6150  -11.7450   20.8430 C   0  0  0  0  0  0  0  0  0  0  0  0
  -26.2620  -12.9980   20.2800 N   0  0  0  0  0  0  0  0  0  0  0  0
  -25.9060  -11.7120   20.5330 N   0  0  0  0  0  0  0  0  0  0  0  0
  -23.8910  -10.4820   21.0370 C   0  0  0  0  0  0  0  0  0  0  0  0
  -24.3300   -9.5180   21.9730 C   0  0  0  0  0  3  0  0  0  0  0  0
  -23.6090   -8.3190   22.1540 C   0  0  0  0  0  3  0  0  0  0  0  0
  -22.4350   -8.0750   21.3980 C   0  0  0  0  0  0  0  0  0  0  0  0
  -22.0150   -9.0320   20.4560 C   0  0  0  0  0  3  0  0  0  0  0  0
  -22.7360  -10.2230   20.2740 C   0  0  0  0  0  3  0  0  0  0  0  0
  -21.6820   -6.9300   21.4880 O   0  0  0  0  0  0  0  0  0  0  0  0
  -21.6370   -6.1870   22.6400 C   0  0  0  0  0  0  0  0  0  0  0  0
  -21.2060   -6.7400   23.8670 C   0  0  0  0  0  3  0  0  0  0  0  0
  -21.1060   -5.9230   25.0100 C   0  0  0  0  0  3  0  0  0  0  0  0
  -21.4260   -4.5550   24.9300 C   0  0  0  0  0  0  0  0  0  0  0  0
  -21.8500   -4.0020   23.7100 C   0  0  0  0  0  3  0  0  0  0  0  0
  -21.9530   -4.8150   22.5670 C   0  0  0  0  0  0  0  0  0  0  0  0
  -22.3410   -4.2740   21.3860 F   0  0  0  0  0  0  0  0  0  0  0  0
  -21.3260   -3.7650   26.0260 F   0  0  0  0  0  0  0  0  0  0  0  0
  -22.7520  -13.5670   21.1570 C   0  0  0  0  0  0  0  0  0  0  0  0
  -22.0320  -12.8690   22.0280 N   0  0  0  0  0  0  0  0  0  0  0  0
  -22.3060  -14.5920   20.6400 O   0  0  0  0  0  0  0  0  0  0  0  0
  -22.4070  -12.0470   22.4750 H   0  0  0  0  0  0  0  0  0  0  0  0
  -21.0920  -13.1700   22.2460 H   0  0  0  0  0  0  0  0  0  0  0  0
  -25.3670  -15.2470   20.3320 N   0  0  0  0  0  0  0  0  0  0  0  0
  -24.5890  -15.8870   20.4420 H   0  0  0  0  0  0  0  0  0  0  0  0
  -26.2180  -15.7090   20.0330 H   0  0  0  0  0  0  0  0  0  0  0  0
  -29.6920  -23.4840   20.0590 C   0  0  0  0  0  2  0  0  0  0  0  0
  -28.3320  -24.1850   19.8510 C   0  0  0  0  0  2  0  0  0  0  0  0
  -28.1860  -25.3860   20.8230 C   0  0  0  0  0  2  0  0  0  0  0  0
  -28.3520  -26.6790   20.2160 O   0  0  0  0  0  0  0  0  0  0  0  0
  -24.5650  -31.8920   23.2490 C   0  0  0  0  0  0  0  0  0  0  0  0
  -27.2070  -27.4360   20.1910 C   0  0  0  0  0  0  0  0  0  0  0  0
  -23.3660  -30.4800   21.6100 C   0  0  0  0  0  3  0  0  0  0  0  0
  -24.8230  -28.9380   20.1980 C   0  0  0  0  0  0  0  0  0  0  0  0
  -25.8930  -30.8390   21.4240 C   0  0  0  0  0  2  0  0  0  0  0  0
  -25.9790  -29.4690   20.7840 C   0  0  0  0  0  0  0  0  0  0  0  0
  -27.1820  -28.7240   20.7760 C   0  0  0  0  0  3  0  0  0  0  0  0
  -26.0340  -26.9210   19.6010 C   0  0  0  0  0  3  0  0  0  0  0  0
  -24.8410  -27.6630   19.6090 C   0  0  0  0  0  3  0  0  0  0  0  0
  -23.5800  -29.7970   20.2360 C   0  0  0  0  0  2  0  0  0  0  0  0
  -24.6260  -31.0820   22.1570 N   0  0  0  0  0  0  0  0  0  0  0  0
  -23.4760  -32.1890   23.7600 O   0  0  0  0  0  0  0  0  0  0  0  0
  -22.7100  -29.4630   22.5710 C   0  0  0  0  0  0  0  0  0  0  0  0
  -21.3860  -29.2780   22.4370 N   0  0  0  0  0  0  0  0  0  0  0  0
  -23.3900  -28.8380   23.3900 O   0  0  0  0  0  0  0  0  0  0  0  0
  -20.8980  -29.8330   21.7490 H   0  0  0  0  0  0  0  0  0  0  0  0
  -18.0120  -28.0800   22.9180 C   0  0  0  0  0  0  0  0  0  0  0  0
  -20.5680  -28.3390   23.2050 C   0  0  0  0  0  3  0  0  0  0  0  0
  -20.6750  -26.9060   22.6350 C   0  0  0  0  0  2  0  0  0  0  0  0
  -19.5810  -26.5810   21.6130 C   0  0  0  0  0  2  0  0  0  0  0  0
  -18.1940  -26.7290   22.2460 C   0  0  0  0  0  2  0  0  0  0  0  0
  -19.1270  -28.8430   23.3550 C   0  0  0  0  0  0  0  0  0  0  0  0
  -18.9070  -30.1070   23.9430 C   0  0  0  0  0  3  0  0  0  0  0  0
  -17.6020  -30.6090   24.0990 C   0  0  0  0  0  3  0  0  0  0  0  0
  -16.5000  -29.8440   23.6810 C   0  0  0  0  0  3  0  0  0  0  0  0
  -16.7050  -28.5820   23.0980 C   0  0  0  0  0  3  0  0  0  0  0  0
  -25.8490  -32.5160   23.8820 C   0  0  0  0  0  3  0  0  0  0  0  0
  -25.5470  -33.9170   24.1960 N   0  0  0  0  0  0  0  0  0  0  0  0
  -25.8910  -34.9600   23.4270 C   0  0  0  0  0  0  0  0  0  0  0  0
  -26.5640  -34.8410   22.4010 O   0  0  0  0  0  0  0  0  0  0  0  0
  -24.9450  -34.0860   24.9900 H   0  0  0  0  0  0  0  0  0  0  0  0
  -24.1690  -36.7520   23.0480 C   0  0  0  0  0  1  0  0  0  0  0  0
  -25.4070  -36.3530   23.8670 C   0  0  0  0  0  3  0  0  0  0  0  0
  -27.5420  -37.2380   24.6940 C   0  0  0  0  0  1  0  0  0  0  0  0
  -26.4430  -37.4020   23.7480 N   0  0  0  0  0  0  0  0  0  0  0  0
  -26.0380  -38.3230   23.8900 H   0  0  0  0  0  0  0  0  0  0  0  0
  -26.3540  -31.7530   25.1670 C   0  0  1  0  0  0  0  0  0  0  0  0
  -25.2540  -31.5330   26.2300 C   0  0  0  0  0  1  0  0  0  0  0  0
  -26.9360  -30.3700   24.7920 C   0  0  0  0  0  1  0  0  0  0  0  0
  -27.5040  -32.5480   25.8320 C   0  0  0  0  0  1  0  0  0  0  0  0
  1  2  2  0
  2  4  1  0
  2  5  1  0
  3  1  1  0
  3 52  1  0
  6  3  1  0
  7 13  2  0
  8  9  1  0
  8 10  1  0
  9 11  1  0
 10  1  1  0
 10  7  1  0
 11 12  1  0
 11  7  1  0
 13 14  1  0
 14 15  1  0
 16 15  1  0
 17 22  1  0
 18 19  1  0
 18 17  1  0
 20 19  1  0
 20 27  1  0
 20 21  1  0
 22 16  1  0
 22 21  1  0
 23 16  2  0
 24 25  2  0
 25 44  1  0
 26 25  1  0
 26 29  1  0
 27 24  1  0
 27 28  1  0
 28 26  2  0
 29 30  1  0
 30 31  2  0
 32 35  1  0
 32 31  1  0
 33 32  2  0
 34 33  1  0
 34 29  2  0
 35 36  1  0
 36 37  1  0
 37 38  2  0
 39 38  1  0
 39 43  1  0
 40 39  2  0
 41 36  2  0
 41 40  1  0
 42 41  1  0
 44 45  1  0
 45 48  1  0
 45 47  1  0
 46 44  2  0
 49 50  1  0
 49 24  1  0
 51 49  1  0
 53 52  1  0
 53 54  1  0
 55 54  1  0
 56 67  2  0
 57 55  1  0
 57 62  1  0
 58 66  1  0
 58 68  1  0
 59 65  1  0
 59 61  1  0
 60 66  1  0
 61 60  1  0
 62 61  2  0
 63 64  1  0
 63 57  2  0
 64 59  2  0
 65 58  1  0
 66 56  1  0
 68 70  2  0
 69 68  1  0
 71 69  1  0
 72 81  2  0
 72 77  1  0
 73 69  1  0
 73 77  1  0
 74 73  1  0
 75 76  1  0
 75 74  1  0
 76 72  1  0
 77 78  2  0
 78 79  1  0
 80 79  2  0
 81 80  1  0
 82 56  1  0
 82 83  1  0
 82 92  1  0
 83 86  1  0
 84 88  1  0
 84 83  1  0
 85 84  2  0
 88 87  1  0
 90 88  1  0
 90 91  1  0
 90 89  1  0
 92 95  1  1
 92 93  1  0
 94 92  1  0
M  ISO  4  15 100  16 100  54 101  55 101
M  END
>  <TORSDO>  (70) 
F 22

>  <SCORE>  (70) 
-13.279

>  <name>  (70) 
69

>  <ligand_id>  (70) 
69

>  <original_smiles>  (70) 
[H]c1c([H])c([H])c2c(c1[H])C([H])([H])C([H])([H])C([H])([H])C2([H])N([H])C(=O)C1([H])N(C(=O)C([H])(N([H])C(=O)C([H])(N([H])C([H])([H])[H])C([H])([H])[H])C(C([H])([H])[H])(C([H])([H])[H])C([H])([H])[H])C([H])([H])c2c([H])c(OC([H])([H])C([H])([H])C([H])([H])[N+]([H])=C(N([H])[H])C3([H])C(=NC([H])([H])C([H])([H])C(=O)N4C([H])([H])C([H])([H])C([H])([H])C([H])(n5nc(-c6c([H])c([H])c(Oc7c([H])c([H])c(F)c([H])c7F)c([H])c6[H])c(C(=O)N([H])[H])c5N([H])[H])C4([H])[H])C([H])(C([H])([H])[H])C([H])([H])C3([H])[H])c([H])c([H])c2C1([H])[H]

>  <smiles>  (70) 
[H]c1c([H])c([H])c2c(c1[H])C([H])([H])C([H])([H])C([H])([H])C2([H])N([H])C(=O)C1([H])N(C(=O)C([H])(N([H])C(=O)C([H])(N([H])C([H])([H])[H])C([H])([H])[H])C(C([H])([H])[H])(C([H])([H])[H])C([H])([H])[H])C([H])([H])c2c([H])c(OC([H])([H])C([H])([H])C([H])([H])[N+]([H])=C(N([H])[H])C3([H])C(=NC([H])([H])C([H])([H])C(=O)N4C([H])([H])C([H])([H])C([H])([H])C([H])(n5nc(-c6c([H])c([H])c(Oc7c([H])c([H])c(F)c([H])c7F)c([H])c6[H])c(C(=O)N([H])[H])c5N([H])[H])C4([H])[H])C([H])(C([H])([H])[H])C([H])([H])C3([H])[H])c([H])c([H])c2C1([H])[H]

$$$$
70:0:0
     RDKit          3D

 94103  0  0  1  0  0  0  0  0999 V2000
  -32.3950  -24.9880   19.1300 C   0  0  0  0  0  2  0  0  0  0  0  0
  -32.6020  -23.6880   19.9010 C   0  0  0  0  0  2  0  0  0  0  0  0
  -30.0910  -26.0180   18.5470 C   0  0  0  0  0  2  0  0  0  0  0  0
  -28.8600  -24.3510   19.7590 C   0  0  0  0  0  2  0  0  0  0  0  0
  -31.0380  -25.4860   19.6250 C   0  0  0  0  0  3  0  0  0  0  0  0
  -30.3200  -24.2870   20.2770 C   0  0  0  0  0  3  0  0  0  0  0  0
  -28.7000  -25.7420   19.1090 C   0  0  0  0  0  3  0  0  0  0  0  0
  -31.2090  -23.0210   20.0180 C   0  0  1  0  0  0  0  0  0  0  0  0
  -30.9230  -22.3090   18.6690 C   0  0  0  0  0  1  0  0  0  0  0  0
  -28.4420  -26.7520   20.0930 O   0  0  0  0  0  0  0  0  0  0  0  0
  -24.6420  -31.8790   23.2310 C   0  0  0  0  0  0  0  0  0  0  0  0
  -27.2400  -27.4330   20.1030 C   0  0  0  0  0  0  0  0  0  0  0  0
  -23.4090  -30.4740   21.6120 C   0  0  0  0  0  3  0  0  0  0  0  0
  -24.8380  -28.9340   20.1660 C   0  0  0  0  0  0  0  0  0  0  0  0
  -25.9320  -30.8250   21.3800 C   0  0  0  0  0  2  0  0  0  0  0  0
  -26.0040  -29.4560   20.7390 C   0  0  0  0  0  0  0  0  0  0  0  0
  -27.2020  -28.7090   20.7130 C   0  0  0  0  0  3  0  0  0  0  0  0
  -26.0460  -26.9120   19.5530 C   0  0  0  0  0  3  0  0  0  0  0  0
  -24.8540  -27.6590   19.5730 C   0  0  0  0  0  3  0  0  0  0  0  0
  -23.5950  -29.7930   20.2310 C   0  0  0  0  0  2  0  0  0  0  0  0
  -24.6820  -31.0710   22.1350 N   0  0  0  0  0  0  0  0  0  0  0  0
  -23.5640  -32.1740   23.7660 O   0  0  0  0  0  0  0  0  0  0  0  0
  -22.7700  -29.4550   22.5810 C   0  0  0  0  0  0  0  0  0  0  0  0
  -21.4450  -29.2700   22.4650 N   0  0  0  0  0  0  0  0  0  0  0  0
  -23.4610  -28.8340   23.3930 O   0  0  0  0  0  0  0  0  0  0  0  0
  -20.9490  -29.8230   21.7810 H   0  0  0  0  0  0  0  0  0  0  0  0
  -18.0780  -28.0600   22.9700 C   0  0  0  0  0  0  0  0  0  0  0  0
  -20.6330  -28.3330   23.2400 C   0  0  0  0  0  3  0  0  0  0  0  0
  -20.7450  -26.8990   22.6740 C   0  0  0  0  0  2  0  0  0  0  0  0
  -19.6450  -26.5640   21.6620 C   0  0  0  0  0  2  0  0  0  0  0  0
  -18.2620  -26.7050   22.3050 C   0  0  0  0  0  2  0  0  0  0  0  0
  -19.1910  -28.8310   23.3950 C   0  0  0  0  0  0  0  0  0  0  0  0
  -18.9670  -30.0970   23.9760 C   0  0  0  0  0  3  0  0  0  0  0  0
  -17.6610  -30.5940   24.1370 C   0  0  0  0  0  3  0  0  0  0  0  0
  -16.5600  -29.8200   23.7290 C   0  0  0  0  0  3  0  0  0  0  0  0
  -16.7700  -28.5550   23.1520 C   0  0  0  0  0  3  0  0  0  0  0  0
  -25.9390  -32.4970   23.8410 C   0  0  0  0  0  3  0  0  0  0  0  0
  -25.6390  -33.8930   24.1870 N   0  0  0  0  0  0  0  0  0  0  0  0
  -25.9570  -34.9500   23.4300 C   0  0  0  0  0  0  0  0  0  0  0  0
  -26.6090  -34.8540   22.3860 O   0  0  0  0  0  0  0  0  0  0  0  0
  -25.0530  -34.0410   24.9970 H   0  0  0  0  0  0  0  0  0  0  0  0
  -24.2150  -36.7380   23.1230 C   0  0  0  0  0  1  0  0  0  0  0  0
  -25.4760  -36.3350   23.9040 C   0  0  0  0  0  3  0  0  0  0  0  0
  -27.6310  -37.2150   24.6810 C   0  0  0  0  0  1  0  0  0  0  0  0
  -26.5020  -37.3920   23.7730 N   0  0  0  0  0  0  0  0  0  0  0  0
  -26.0970  -38.3090   23.9450 H   0  0  0  0  0  0  0  0  0  0  0  0
  -26.4770  -31.7110   25.1000 C   0  0  1  0  0  0  0  0  0  0  0  0
  -25.4020  -31.4670   26.1840 C   0  0  0  0  0  1  0  0  0  0  0  0
  -27.0490  -30.3340   24.6850 C   0  0  0  0  0  1  0  0  0  0  0  0
  -27.6400  -32.4960   25.7500 C   0  0  0  0  0  1  0  0  0  0  0  0
  -31.2390  -22.0030   21.2100 C   0  0  0  0  0  2  0  0  0  0  0  0
  -30.3900  -20.7960   21.0320 N   0  0  0  0  0  4  0  0  0  0  0  0
  -30.0960  -20.7790   20.0700 H   0  0  0  0  0  0  0  0  0  0  0  0
  -29.5670  -20.8910   21.6040 H   0  0  0  0  0  0  0  0  0  0  0  0
  -31.0730  -19.5100   21.3350 C   0  0  0  0  0  2  0  0  0  0  0  0
  -30.1560  -18.2660   21.2030 C   0  0  0  0  0  2  0  0  0  0  0  0
  -30.9470  -16.9390   21.1260 C   0  0  0  0  0  2  0  0  0  0  0  0
  -30.0830  -15.6400   21.1900 C   0  0  0  0  0  2  0  0  0  0  0  0
  -30.6860  -14.4350   20.4260 C   0  0  0  0  0  0  0  0  0  0  0  0
  -30.3200  -12.3060   19.2310 C   0  0  0  0  0  2  0  0  0  0  0  0
  -29.3670  -12.5480   18.0440 C   0  0  0  0  0  2  0  0  0  0  0  0
  -27.8970  -12.4150   18.4920 C   0  0  0  0  0  2  0  0  0  0  0  0
  -27.5870  -13.2360   19.7730 C   0  0  0  0  0  3  0  0  0  0  0  0
  -28.6580  -13.0100   20.8640 C   0  0  0  0  0  2  0  0  0  0  0  0
  -29.9780  -13.2830   20.2770 N   0  0  0  0  0  0  0  0  0  0  0  0
  -31.7810  -14.5890   19.8800 O   0  0  0  0  0  0  0  0  0  0  0  0
  -25.1970  -13.8410   20.5150 C   0  0  0  0  0  0  0  0  0  0  0  0
  -24.1350  -13.0690   20.9000 C   0  0  0  0  0  0  0  0  0  0  0  0
  -24.5930  -11.7160   20.8590 C   0  0  0  0  0  0  0  0  0  0  0  0
  -26.2390  -12.9600   20.2680 N   0  0  0  0  0  0  0  0  0  0  0  0
  -25.8800  -11.6760   20.5320 N   0  0  0  0  0  0  0  0  0  0  0  0
  -23.8680  -10.4540   21.0580 C   0  0  0  0  0  0  0  0  0  0  0  0
  -24.3300   -9.4750   21.9660 C   0  0  0  0  0  3  0  0  0  0  0  0
  -23.6070   -8.2770   22.1560 C   0  0  0  0  0  3  0  0  0  0  0  0
  -22.4090   -8.0480   21.4370 C   0  0  0  0  0  0  0  0  0  0  0  0
  -21.9670   -9.0150   20.5190 C   0  0  0  0  0  3  0  0  0  0  0  0
  -22.6890  -10.2060   20.3260 C   0  0  0  0  0  3  0  0  0  0  0  0
  -21.6580   -6.9020   21.5340 O   0  0  0  0  0  0  0  0  0  0  0  0
  -21.6610   -6.1350   22.6710 C   0  0  0  0  0  0  0  0  0  0  0  0
  -21.3160   -6.6670   23.9330 C   0  0  0  0  0  3  0  0  0  0  0  0
  -21.2640   -5.8270   25.0620 C   0  0  0  0  0  3  0  0  0  0  0  0
  -21.5490   -4.4540   24.9340 C   0  0  0  0  0  0  0  0  0  0  0  0
  -21.8870   -3.9200   23.6770 C   0  0  0  0  0  3  0  0  0  0  0  0
  -21.9400   -4.7570   22.5490 C   0  0  0  0  0  0  0  0  0  0  0  0
  -22.2470   -4.2340   21.3380 F   0  0  0  0  0  0  0  0  0  0  0  0
  -21.4910   -3.6450   26.0170 F   0  0  0  0  0  0  0  0  0  0  0  0
  -22.7410  -13.5460   21.1930 C   0  0  0  0  0  0  0  0  0  0  0  0
  -22.0250  -12.8510   22.0710 N   0  0  0  0  0  0  0  0  0  0  0  0
  -22.2940  -14.5700   20.6770 O   0  0  0  0  0  0  0  0  0  0  0  0
  -22.3980  -12.0240   22.5160 H   0  0  0  0  0  0  0  0  0  0  0  0
  -21.0910  -13.1550   22.3050 H   0  0  0  0  0  0  0  0  0  0  0  0
  -25.3620  -15.2120   20.3390 N   0  0  0  0  0  0  0  0  0  0  0  0
  -24.6020  -15.8700   20.4660 H   0  0  0  0  0  0  0  0  0  0  0  0
  -26.2130  -15.6490   20.0100 H   0  0  0  0  0  0  0  0  0  0  0  0
  1  5  1  0
  1  2  1  0
  2  8  1  0
  3  7  1  0
  5  3  1  0
  5  6  1  0
  6  4  1  0
  7  4  1  0
  7 10  1  0
  8  9  1  6
  8  6  1  0
  8 51  1  0
 10 12  1  0
 11 22  2  0
 12 17  1  0
 13 21  1  0
 13 23  1  0
 14 20  1  0
 14 16  1  0
 15 21  1  0
 16 15  1  0
 17 16  2  0
 18 19  1  0
 18 12  2  0
 19 14  2  0
 20 13  1  0
 21 11  1  0
 23 25  2  0
 24 23  1  0
 26 24  1  0
 27 36  2  0
 27 32  1  0
 28 24  1  0
 28 32  1  0
 29 28  1  0
 30 31  1  0
 30 29  1  0
 31 27  1  0
 32 33  2  0
 33 34  1  0
 35 34  2  0
 36 35  1  0
 37 11  1  0
 37 38  1  0
 37 47  1  0
 38 41  1  0
 39 43  1  0
 39 38  1  0
 40 39  2  0
 43 42  1  0
 45 43  1  0
 45 46  1  0
 45 44  1  0
 47 50  1  1
 47 48  1  0
 49 47  1  0
 52 51  1  0
 52 55  1  0
 52 54  1  0
 53 52  1  0
 56 55  1  0
 57 58  1  0
 57 56  1  0
 59 58  1  0
 60 65  1  0
 61 62  1  0
 61 60  1  0
 63 62  1  0
 63 70  1  0
 63 64  1  0
 65 59  1  0
 65 64  1  0
 66 59  2  0
 67 68  2  0
 68 87  1  0
 69 68  1  0
 69 72  1  0
 70 67  1  0
 70 71  1  0
 71 69  2  0
 72 73  1  0
 73 74  2  0
 75 78  1  0
 75 74  1  0
 76 75  2  0
 77 76  1  0
 77 72  2  0
 78 79  1  0
 79 80  1  0
 80 81  2  0
 82 81  1  0
 82 86  1  0
 83 82  2  0
 84 79  2  0
 84 83  1  0
 85 84  1  0
 87 88  1  0
 88 91  1  0
 88 90  1  0
 89 87  2  0
 92 93  1  0
 92 67  1  0
 94 92  1  0
M  ISO  4   7 101  10 101  58 100  59 100
M  END
>  <TORSDO>  (71) 
F 22

>  <SCORE>  (71) 
-13.017

>  <name>  (71) 
70

>  <ligand_id>  (71) 
70

>  <original_smiles>  (71) 
[H]c1c([H])c([H])c2c(c1[H])C([H])([H])C([H])([H])C([H])([H])C2([H])N([H])C(=O)C1([H])N(C(=O)C([H])(N([H])C(=O)C([H])(N([H])C([H])([H])[H])C([H])([H])[H])C(C([H])([H])[H])(C([H])([H])[H])C([H])([H])[H])C([H])([H])c2c([H])c(OC3([H])C([H])([H])C4([H])C([H])([H])C([H])([H])C(C([H])([H])[H])(C([H])([H])[N+]([H])([H])C([H])([H])C([H])([H])C([H])([H])C([H])([H])C(=O)N5C([H])([H])C([H])([H])C([H])([H])C([H])(n6nc(-c7c([H])c([H])c(Oc8c([H])c([H])c(F)c([H])c8F)c([H])c7[H])c(C(=O)N([H])[H])c6N([H])[H])C5([H])[H])C4([H])C3([H])[H])c([H])c([H])c2C1([H])[H]

>  <smiles>  (71) 
[H]c1c([H])c([H])c2c(c1[H])C([H])([H])C([H])([H])C([H])([H])C2([H])N([H])C(=O)C1([H])N(C(=O)C([H])(N([H])C(=O)C([H])(N([H])C([H])([H])[H])C([H])([H])[H])C(C([H])([H])[H])(C([H])([H])[H])C([H])([H])[H])C([H])([H])c2c([H])c(OC3([H])C([H])([H])C4([H])C([H])([H])C([H])([H])C(C([H])([H])[H])(C([H])([H])[N+]([H])([H])C([H])([H])C([H])([H])C([H])([H])C([H])([H])C(=O)N5C([H])([H])C([H])([H])C([H])([H])C([H])(n6nc(-c7c([H])c([H])c(Oc8c([H])c([H])c(F)c([H])c8F)c([H])c7[H])c(C(=O)N([H])[H])c6N([H])[H])C5([H])[H])C4([H])C3([H])[H])c([H])c([H])c2C1([H])[H]

$$$$
71:0:0
     RDKit          3D

 95104  0  0  1  0  0  0  0  0999 V2000
  -30.2510  -21.5380   18.7790 C   0  0  0  0  0  3  0  0  0  0  0  0
  -28.6690  -21.3270   20.6220 C   0  0  0  0  0  3  0  0  0  0  0  0
  -29.5690  -22.1140   19.8710 C   0  0  0  0  0  0  0  0  0  0  0  0
  -29.1010  -19.4200   19.1640 C   0  0  0  0  0  0  0  0  0  0  0  0
  -30.0150  -20.2000   18.4240 C   0  0  0  0  0  0  0  0  0  0  0  0
  -28.4370  -19.9850   20.2720 C   0  0  0  0  0  0  0  0  0  0  0  0
  -30.6560  -19.6710   17.3540 F   0  0  0  0  0  0  0  0  0  0  0  0
  -27.5590  -19.2490   20.9960 F   0  0  0  0  0  0  0  0  0  0  0  0
  -30.0210  -23.9450   21.6330 C   0  0  0  0  0  2  0  0  0  0  0  0
  -29.6340  -25.4190   21.7040 C   0  0  0  0  0  2  0  0  0  0  0  0
  -28.5080  -24.4060   19.7730 C   0  0  0  0  0  2  0  0  0  0  0  0
  -29.7450  -23.5900   20.1660 C   0  0  0  0  0  3  0  0  0  0  0  0
  -28.4030  -25.5380   20.7990 C   0  0  0  0  0  3  0  0  0  0  0  0
  -28.4200  -26.7970   20.1490 O   0  0  0  0  0  0  0  0  0  0  0  0
  -24.5800  -31.8740   23.2390 C   0  0  0  0  0  0  0  0  0  0  0  0
  -27.2280  -27.4690   20.1620 C   0  0  0  0  0  0  0  0  0  0  0  0
  -23.3680  -30.4650   21.6030 C   0  0  0  0  0  3  0  0  0  0  0  0
  -24.8210  -28.9240   20.1820 C   0  0  0  0  0  0  0  0  0  0  0  0
  -25.8880  -30.8370   21.3950 C   0  0  0  0  0  2  0  0  0  0  0  0
  -25.9740  -29.4670   20.7610 C   0  0  0  0  0  0  0  0  0  0  0  0
  -27.1820  -28.7460   20.7480 C   0  0  0  0  0  3  0  0  0  0  0  0
  -26.0630  -26.9170   19.5890 C   0  0  0  0  0  3  0  0  0  0  0  0
  -24.8560  -27.6450   19.5940 C   0  0  0  0  0  3  0  0  0  0  0  0
  -23.5730  -29.7770   20.2250 C   0  0  0  0  0  2  0  0  0  0  0  0
  -24.6310  -31.0690   22.1410 N   0  0  0  0  0  0  0  0  0  0  0  0
  -23.4980  -32.1690   23.7630 O   0  0  0  0  0  0  0  0  0  0  0  0
  -22.7200  -29.4460   22.5660 C   0  0  0  0  0  0  0  0  0  0  0  0
  -21.3960  -29.2660   22.4400 N   0  0  0  0  0  0  0  0  0  0  0  0
  -23.4040  -28.8170   23.3780 O   0  0  0  0  0  0  0  0  0  0  0  0
  -20.9060  -29.8250   21.7540 H   0  0  0  0  0  0  0  0  0  0  0  0
  -18.0190  -28.0850   22.9310 C   0  0  0  0  0  0  0  0  0  0  0  0
  -20.5760  -28.3310   23.2070 C   0  0  0  0  0  3  0  0  0  0  0  0
  -20.6740  -26.9010   22.6290 C   0  0  0  0  0  2  0  0  0  0  0  0
  -19.5720  -26.5850   21.6130 C   0  0  0  0  0  2  0  0  0  0  0  0
  -18.1890  -26.7360   22.2550 C   0  0  0  0  0  2  0  0  0  0  0  0
  -19.1390  -28.8410   23.3630 C   0  0  0  0  0  0  0  0  0  0  0  0
  -18.9270  -30.1060   23.9530 C   0  0  0  0  0  3  0  0  0  0  0  0
  -17.6250  -30.6140   24.1180 C   0  0  0  0  0  3  0  0  0  0  0  0
  -16.5170  -29.8550   23.7020 C   0  0  0  0  0  3  0  0  0  0  0  0
  -16.7150  -28.5930   23.1130 C   0  0  0  0  0  3  0  0  0  0  0  0
  -25.8720  -32.4890   23.8650 C   0  0  0  0  0  3  0  0  0  0  0  0
  -26.3900  -31.7080   25.1360 C   0  0  1  0  0  0  0  0  0  0  0  0
  -25.2970  -31.4700   26.2040 C   0  0  0  0  0  1  0  0  0  0  0  0
  -26.9670  -30.3320   24.7320 C   0  0  0  0  0  1  0  0  0  0  0  0
  -27.5460  -32.4930   25.8000 C   0  0  0  0  0  1  0  0  0  0  0  0
  -25.5750  -33.8870   24.2000 N   0  0  0  0  0  0  0  0  0  0  0  0
  -25.9080  -34.9370   23.4380 C   0  0  0  0  0  0  0  0  0  0  0  0
  -26.5740  -34.8300   22.4040 O   0  0  0  0  0  0  0  0  0  0  0  0
  -24.9830  -34.0450   25.0030 H   0  0  0  0  0  0  0  0  0  0  0  0
  -24.1800  -36.7300   23.0870 C   0  0  0  0  0  1  0  0  0  0  0  0
  -25.4250  -36.3260   23.8940 C   0  0  0  0  0  3  0  0  0  0  0  0
  -27.5660  -37.2050   24.7100 C   0  0  0  0  0  1  0  0  0  0  0  0
  -26.4580  -37.3780   23.7740 N   0  0  0  0  0  0  0  0  0  0  0  0
  -26.0560  -38.2980   23.9270 H   0  0  0  0  0  0  0  0  0  0  0  0
  -28.8140  -17.9940   18.7420 C   0  0  0  0  0  2  0  0  0  0  0  0
  -29.9490  -17.0220   19.0880 C   0  0  0  0  0  2  0  0  0  0  0  0
  -30.1610  -16.7860   20.6060 C   0  0  0  0  0  2  0  0  0  0  0  0
  -30.6930  -14.3760   20.4770 C   0  0  0  0  0  0  0  0  0  0  0  0
  -30.3700  -12.2560   19.2890 C   0  0  0  0  0  2  0  0  0  0  0  0
  -29.4440  -12.5180   18.0850 C   0  0  0  0  0  2  0  0  0  0  0  0
  -27.9620  -12.4080   18.4960 C   0  0  0  0  0  2  0  0  0  0  0  0
  -27.6320  -13.2280   19.7720 C   0  0  0  0  0  3  0  0  0  0  0  0
  -28.6670  -12.9420   20.8850 C   0  0  0  0  0  2  0  0  0  0  0  0
  -30.0110  -13.2130   20.3430 N   0  0  0  0  0  0  0  0  0  0  0  0
  -31.8140  -14.5780   20.0000 O   0  0  0  0  0  0  0  0  0  0  0  0
  -29.9540  -15.3830   20.9530 N   0  0  0  0  0  0  0  0  0  0  0  0
  -29.0600  -15.1350   21.3480 H   0  0  0  0  0  0  0  0  0  0  0  0
  -25.2230  -13.8740   20.4240 C   0  0  0  0  0  0  0  0  0  0  0  0
  -24.1420  -13.1170   20.7900 C   0  0  0  0  0  0  0  0  0  0  0  0
  -24.5930  -11.7610   20.7910 C   0  0  0  0  0  0  0  0  0  0  0  0
  -26.2660  -12.9790   20.2280 N   0  0  0  0  0  0  0  0  0  0  0  0
  -25.8860  -11.7050   20.5030 N   0  0  0  0  0  0  0  0  0  0  0  0
  -23.8550  -10.5080   20.9940 C   0  0  0  0  0  0  0  0  0  0  0  0
  -24.2790   -9.5460   21.9370 C   0  0  0  0  0  3  0  0  0  0  0  0
  -23.5430   -8.3570   22.1260 C   0  0  0  0  0  3  0  0  0  0  0  0
  -22.3700   -8.1210   21.3730 C   0  0  0  0  0  0  0  0  0  0  0  0
  -21.9640   -9.0710   20.4190 C   0  0  0  0  0  3  0  0  0  0  0  0
  -22.7010  -10.2520   20.2270 C   0  0  0  0  0  3  0  0  0  0  0  0
  -21.6060   -6.9830   21.4700 O   0  0  0  0  0  0  0  0  0  0  0  0
  -21.5620   -6.2430   22.6240 C   0  0  0  0  0  0  0  0  0  0  0  0
  -21.1690   -6.8080   23.8570 C   0  0  0  0  0  3  0  0  0  0  0  0
  -21.0710   -5.9950   25.0040 C   0  0  0  0  0  3  0  0  0  0  0  0
  -21.3540   -4.6200   24.9190 C   0  0  0  0  0  0  0  0  0  0  0  0
  -21.7390   -4.0540   23.6920 C   0  0  0  0  0  3  0  0  0  0  0  0
  -21.8400   -4.8630   22.5460 C   0  0  0  0  0  0  0  0  0  0  0  0
  -22.1910   -4.3100   21.3610 F   0  0  0  0  0  0  0  0  0  0  0  0
  -21.2520   -3.8370   26.0190 F   0  0  0  0  0  0  0  0  0  0  0  0
  -22.7450  -13.6100   21.0360 C   0  0  0  0  0  0  0  0  0  0  0  0
  -22.0020  -12.9340   21.9060 N   0  0  0  0  0  0  0  0  0  0  0  0
  -22.3200  -14.6280   20.4920 O   0  0  0  0  0  0  0  0  0  0  0  0
  -22.3570  -12.1100   22.3670 H   0  0  0  0  0  0  0  0  0  0  0  0
  -21.0630  -13.2460   22.1130 H   0  0  0  0  0  0  0  0  0  0  0  0
  -25.4030  -15.2400   20.2260 N   0  0  0  0  0  0  0  0  0  0  0  0
  -24.6450  -15.9050   20.3200 H   0  0  0  0  0  0  0  0  0  0  0  0
  -26.2700  -15.6680   19.9260 H   0  0  0  0  0  0  0  0  0  0  0  0
  1  3  1  0
  3  2  2  0
  4  6  2  0
  5  1  2  0
  5  4  1  0
  6  2  1  0
  6  8  1  0
  7  5  1  0
  9 10  1  0
 11 12  1  0
 11 13  1  0
 12  3  1  0
 12  9  1  0
 13 14  1  0
 13 10  1  0
 14 16  1  0
 15 26  2  0
 16 21  1  0
 17 25  1  0
 17 27  1  0
 18 24  1  0
 18 20  1  0
 19 25  1  0
 20 19  1  0
 21 20  2  0
 22 23  1  0
 22 16  2  0
 23 18  2  0
 24 17  1  0
 25 15  1  0
 27 29  2  0
 28 27  1  0
 30 28  1  0
 31 40  2  0
 31 36  1  0
 32 28  1  0
 32 36  1  0
 33 32  1  0
 34 35  1  0
 34 33  1  0
 35 31  1  0
 36 37  2  0
 37 38  1  0
 39 38  2  0
 40 39  1  0
 41 15  1  0
 41 46  1  0
 41 42  1  0
 42 45  1  1
 42 43  1  0
 44 42  1  0
 46 49  1  0
 47 51  1  0
 47 46  1  0
 48 47  2  0
 51 50  1  0
 53 51  1  0
 53 54  1  0
 53 52  1  0
 55 56  1  0
 55  4  1  0
 56 57  1  0
 57 66  1  0
 58 66  1  0
 59 64  1  0
 60 61  1  0
 60 59  1  0
 62 61  1  0
 62 71  1  0
 62 63  1  0
 64 58  1  0
 64 63  1  0
 65 58  2  0
 66 67  1  0
 68 69  2  0
 69 70  1  0
 69 88  1  0
 70 73  1  0
 71 68  1  0
 71 72  1  0
 72 70  2  0
 73 74  1  0
 74 75  2  0
 76 79  1  0
 76 75  1  0
 77 76  2  0
 78 77  1  0
 78 73  2  0
 79 80  1  0
 80 81  1  0
 81 82  2  0
 83 82  1  0
 83 87  1  0
 84 83  2  0
 85 80  2  0
 85 84  1  0
 86 85  1  0
 88 89  1  0
 89 92  1  0
 89 91  1  0
 90 88  2  0
 93 94  1  0
 93 68  1  0
 95 93  1  0
M  ISO  4  13 101  14 101  58 100  66 100
M  END
>  <TORSDO>  (72) 
F 20

>  <SCORE>  (72) 
-14.023

>  <name>  (72) 
71

>  <ligand_id>  (72) 
71

>  <original_smiles>  (72) 
[H]c1c([H])c([H])c2c(c1[H])C([H])([H])C([H])([H])C([H])([H])C2([H])N([H])C(=O)C1([H])N(C(=O)C([H])(N([H])C(=O)C([H])(N([H])C([H])([H])[H])C([H])([H])[H])C(C([H])([H])[H])(C([H])([H])[H])C([H])([H])[H])C([H])([H])c2c([H])c(OC3([H])C([H])([H])C([H])([H])C([H])(c4c([H])c(F)c(C([H])([H])C([H])([H])C([H])([H])N([H])C(=O)N5C([H])([H])C([H])([H])C([H])([H])C([H])(n6nc(-c7c([H])c([H])c(Oc8c([H])c([H])c(F)c([H])c8F)c([H])c7[H])c(C(=O)N([H])[H])c6N([H])[H])C5([H])[H])c(F)c4[H])C3([H])[H])c([H])c([H])c2C1([H])[H]

>  <smiles>  (72) 
[H]c1c([H])c([H])c2c(c1[H])C([H])([H])C([H])([H])C([H])([H])C2([H])N([H])C(=O)C1([H])N(C(=O)C([H])(N([H])C(=O)C([H])(N([H])C([H])([H])[H])C([H])([H])[H])C(C([H])([H])[H])(C([H])([H])[H])C([H])([H])[H])C([H])([H])c2c([H])c(OC3([H])C([H])([H])C([H])([H])C([H])(c4c([H])c(F)c(C([H])([H])C([H])([H])C([H])([H])N([H])C(=O)N5C([H])([H])C([H])([H])C([H])([H])C([H])(n6nc(-c7c([H])c([H])c(Oc8c([H])c([H])c(F)c([H])c8F)c([H])c7[H])c(C(=O)N([H])[H])c6N([H])[H])C5([H])[H])c(F)c4[H])C3([H])[H])c([H])c([H])c2C1([H])[H]

$$$$
72:0:0
     RDKit          3D

 93101  0  0  1  0  0  0  0  0999 V2000
  -28.8240  -20.5210   20.5000 C   0  0  0  0  0  3  0  0  0  0  0  0
  -29.2090  -21.6910   18.3940 C   0  0  0  0  0  3  0  0  0  0  0  0
  -29.5230  -19.2750   18.5230 C   0  0  0  0  0  3  0  0  0  0  0  0
  -28.8400  -21.7380   19.7560 C   0  0  0  0  0  0  0  0  0  0  0  0
  -29.1560  -19.2780   19.8870 C   0  0  0  0  0  0  0  0  0  0  0  0
  -29.5560  -20.4710   17.7830 C   0  0  0  0  0  0  0  0  0  0  0  0
  -29.9020  -20.4400   16.4350 N   0  0  0  0  0  0  0  0  0  0  0  0
  -29.6320  -21.2210   15.8450 H   0  0  0  0  0  0  0  0  0  0  0  0
  -29.8850  -19.5480   15.9480 H   0  0  0  0  0  0  0  0  0  0  0  0
  -28.3770  -23.0790   20.3660 C   0  0  0  0  0  2  0  0  0  0  0  0
  -29.3000  -24.3160   20.1170 C   0  0  0  0  0  2  0  0  0  0  0  0
  -28.6680  -25.5430   19.3840 C   0  0  0  0  0  2  0  0  0  0  0  0
  -28.4220  -26.6870   20.2350 O   0  0  0  0  0  0  0  0  0  0  0  0
  -24.5990  -31.9050   23.2430 C   0  0  0  0  0  0  0  0  0  0  0  0
  -27.2380  -27.4120   20.1790 C   0  0  0  0  0  0  0  0  0  0  0  0
  -23.3920  -30.4900   21.6150 C   0  0  0  0  0  3  0  0  0  0  0  0
  -24.8430  -28.9460   20.1930 C   0  0  0  0  0  0  0  0  0  0  0  0
  -25.9240  -30.8320   21.4220 C   0  0  0  0  0  2  0  0  0  0  0  0
  -26.0030  -29.4610   20.7810 C   0  0  0  0  0  0  0  0  0  0  0  0
  -27.1980  -28.7000   20.7720 C   0  0  0  0  0  3  0  0  0  0  0  0
  -26.0470  -26.9130   19.6020 C   0  0  0  0  0  3  0  0  0  0  0  0
  -24.8610  -27.6720   19.6040 C   0  0  0  0  0  3  0  0  0  0  0  0
  -23.5990  -29.8060   20.2380 C   0  0  0  0  0  2  0  0  0  0  0  0
  -24.6570  -31.0880   22.1520 N   0  0  0  0  0  0  0  0  0  0  0  0
  -23.5110  -32.2050   23.7560 O   0  0  0  0  0  0  0  0  0  0  0  0
  -22.7380  -29.4740   22.5790 C   0  0  0  0  0  0  0  0  0  0  0  0
  -21.4160  -29.2870   22.4460 N   0  0  0  0  0  0  0  0  0  0  0  0
  -23.4190  -28.8550   23.4010 O   0  0  0  0  0  0  0  0  0  0  0  0
  -20.9260  -29.8350   21.7520 H   0  0  0  0  0  0  0  0  0  0  0  0
  -18.0420  -28.0840   22.9300 C   0  0  0  0  0  0  0  0  0  0  0  0
  -20.5970  -28.3500   23.2170 C   0  0  0  0  0  3  0  0  0  0  0  0
  -20.7080  -26.9170   22.6480 C   0  0  0  0  0  2  0  0  0  0  0  0
  -19.6130  -26.5860   21.6300 C   0  0  0  0  0  2  0  0  0  0  0  0
  -18.2260  -26.7310   22.2640 C   0  0  0  0  0  2  0  0  0  0  0  0
  -19.1560  -28.8520   23.3630 C   0  0  0  0  0  0  0  0  0  0  0  0
  -18.9290  -30.1190   23.9440 C   0  0  0  0  0  3  0  0  0  0  0  0
  -17.6220  -30.6180   24.0970 C   0  0  0  0  0  3  0  0  0  0  0  0
  -16.5230  -29.8460   23.6820 C   0  0  0  0  0  3  0  0  0  0  0  0
  -16.7330  -28.5830   23.1040 C   0  0  0  0  0  3  0  0  0  0  0  0
  -25.8850  -32.5250   23.8700 C   0  0  0  0  0  3  0  0  0  0  0  0
  -25.5820  -33.9240   24.2020 N   0  0  0  0  0  0  0  0  0  0  0  0
  -25.9090  -34.9750   23.4380 C   0  0  0  0  0  0  0  0  0  0  0  0
  -26.5730  -34.8690   22.4030 O   0  0  0  0  0  0  0  0  0  0  0  0
  -24.9920  -34.0820   25.0050 H   0  0  0  0  0  0  0  0  0  0  0  0
  -24.1750  -36.7610   23.0910 C   0  0  0  0  0  1  0  0  0  0  0  0
  -25.4230  -36.3620   23.8950 C   0  0  0  0  0  3  0  0  0  0  0  0
  -27.5610  -37.2510   24.7100 C   0  0  0  0  0  1  0  0  0  0  0  0
  -26.4530  -37.4160   23.7720 N   0  0  0  0  0  0  0  0  0  0  0  0
  -26.0470  -38.3370   23.9200 H   0  0  0  0  0  0  0  0  0  0  0  0
  -26.4000  -31.7530   25.1480 C   0  0  1  0  0  0  0  0  0  0  0  0
  -25.3030  -31.5190   26.2120 C   0  0  0  0  0  1  0  0  0  0  0  0
  -26.9820  -30.3750   24.7570 C   0  0  0  0  0  1  0  0  0  0  0  0
  -27.5500  -32.5470   25.8110 C   0  0  0  0  0  1  0  0  0  0  0  0
  -29.0060  -17.9260   20.6160 C   0  0  0  0  0  2  0  0  0  0  0  0
  -30.2470  -16.9780   20.5840 C   0  0  0  0  0  2  0  0  0  0  0  0
  -30.6610  -14.5110   20.4500 C   0  0  0  0  0  0  0  0  0  0  0  0
  -30.3760  -12.3430   19.3190 C   0  0  0  0  0  2  0  0  0  0  0  0
  -29.4340  -12.5500   18.1130 C   0  0  0  0  0  2  0  0  0  0  0  0
  -27.9600  -12.4100   18.5410 C   0  0  0  0  0  2  0  0  0  0  0  0
  -27.6210  -13.2420   19.8080 C   0  0  0  0  0  3  0  0  0  0  0  0
  -28.6760  -13.0270   20.9180 C   0  0  0  0  0  2  0  0  0  0  0  0
  -29.9990  -13.3260   20.3490 N   0  0  0  0  0  0  0  0  0  0  0  0
  -31.7970  -14.6810   20.0020 O   0  0  0  0  0  0  0  0  0  0  0  0
  -29.9230  -15.5610   20.8670 N   0  0  0  0  0  0  0  0  0  0  0  0
  -29.0090  -15.3540   21.2390 H   0  0  0  0  0  0  0  0  0  0  0  0
  -25.2210  -13.8440   20.5040 C   0  0  0  0  0  0  0  0  0  0  0  0
  -24.1540  -13.0710   20.8760 C   0  0  0  0  0  0  0  0  0  0  0  0
  -24.6180  -11.7210   20.8530 C   0  0  0  0  0  0  0  0  0  0  0  0
  -26.2690  -12.9650   20.2830 N   0  0  0  0  0  0  0  0  0  0  0  0
  -25.9090  -11.6820   20.5490 N   0  0  0  0  0  0  0  0  0  0  0  0
  -23.8960  -10.4580   21.0480 C   0  0  0  0  0  0  0  0  0  0  0  0
  -24.3360   -9.4900   21.9770 C   0  0  0  0  0  3  0  0  0  0  0  0
  -23.6130   -8.2920   22.1580 C   0  0  0  0  0  3  0  0  0  0  0  0
  -22.4350   -8.0520   21.4110 C   0  0  0  0  0  0  0  0  0  0  0  0
  -22.0150   -9.0090   20.4690 C   0  0  0  0  0  3  0  0  0  0  0  0
  -22.7380  -10.1990   20.2860 C   0  0  0  0  0  3  0  0  0  0  0  0
  -21.6830   -6.9060   21.5010 O   0  0  0  0  0  0  0  0  0  0  0  0
  -21.6510   -6.1570   22.6500 C   0  0  0  0  0  0  0  0  0  0  0  0
  -21.2390   -6.7030   23.8850 C   0  0  0  0  0  3  0  0  0  0  0  0
  -21.1540   -5.8800   25.0250 C   0  0  0  0  0  3  0  0  0  0  0  0
  -21.4690   -4.5110   24.9310 C   0  0  0  0  0  0  0  0  0  0  0  0
  -21.8720   -3.9640   23.7010 C   0  0  0  0  0  3  0  0  0  0  0  0
  -21.9590   -4.7840   22.5630 C   0  0  0  0  0  0  0  0  0  0  0  0
  -22.3290   -4.2470   21.3750 F   0  0  0  0  0  0  0  0  0  0  0  0
  -21.3790   -3.7170   26.0250 F   0  0  0  0  0  0  0  0  0  0  0  0
  -22.7540  -13.5470   21.1430 C   0  0  0  0  0  0  0  0  0  0  0  0
  -22.0270  -12.8510   22.0110 N   0  0  0  0  0  0  0  0  0  0  0  0
  -22.3150  -14.5680   20.6170 O   0  0  0  0  0  0  0  0  0  0  0  0
  -22.4000  -12.0260   22.4580 H   0  0  0  0  0  0  0  0  0  0  0  0
  -21.0890  -13.1490   22.2330 H   0  0  0  0  0  0  0  0  0  0  0  0
  -25.3820  -15.2140   20.3170 N   0  0  0  0  0  0  0  0  0  0  0  0
  -24.6050  -15.8620   20.4010 H   0  0  0  0  0  0  0  0  0  0  0  0
  -26.2220  -15.6500   19.9610 H   0  0  0  0  0  0  0  0  0  0  0  0
  2  4  1  0
  3  5  2  0
  4 10  1  0
  4  1  2  0
  5  1  1  0
  5 54  1  0
  6  2  2  0
  6  3  1  0
  7  6  1  0
  8  7  1  0
  9  7  1  0
 11 10  1  0
 12 11  1  0
 12 13  1  0
 14 25  2  0
 15 13  1  0
 15 20  1  0
 16 24  1  0
 16 26  1  0
 17 23  1  0
 17 19  1  0
 18 24  1  0
 19 18  1  0
 20 19  2  0
 21 22  1  0
 21 15  2  0
 22 17  2  0
 23 16  1  0
 24 14  1  0
 26 28  2  0
 27 26  1  0
 29 27  1  0
 30 39  2  0
 30 35  1  0
 31 27  1  0
 31 35  1  0
 32 31  1  0
 33 34  1  0
 33 32  1  0
 34 30  1  0
 35 36  2  0
 36 37  1  0
 38 37  2  0
 39 38  1  0
 40 14  1  0
 40 41  1  0
 40 50  1  0
 41 44  1  0
 42 46  1  0
 42 41  1  0
 43 42  2  0
 46 45  1  0
 48 46  1  0
 48 49  1  0
 48 47  1  0
 50 53  1  1
 50 51  1  0
 52 50  1  0
 55 54  1  0
 55 64  1  0
 56 64  1  0
 57 62  1  0
 58 59  1  0
 58 57  1  0
 60 59  1  0
 60 69  1  0
 60 61  1  0
 62 56  1  0
 62 61  1  0
 63 56  2  0
 64 65  1  0
 66 67  2  0
 67 86  1  0
 68 67  1  0
 68 71  1  0
 69 66  1  0
 69 70  1  0
 70 68  2  0
 71 72  1  0
 72 73  2  0
 74 77  1  0
 74 73  1  0
 75 74  2  0
 76 75  1  0
 76 71  2  0
 77 78  1  0
 78 79  1  0
 79 80  2  0
 81 80  1  0
 81 85  1  0
 82 81  2  0
 83 78  2  0
 83 82  1  0
 84 83  1  0
 86 87  1  0
 87 90  1  0
 87 89  1  0
 88 86  2  0
 91 92  1  0
 91 66  1  0
 93 91  1  0
M  ISO  4  12 101  13 101  56 100  64 100
M  END
>  <TORSDO>  (73) 
F 22

>  <SCORE>  (73) 
-13.385

>  <name>  (73) 
72

>  <ligand_id>  (73) 
72

>  <original_smiles>  (73) 
[H]c1c([H])c([H])c2c(c1[H])C([H])([H])C([H])([H])C([H])([H])C2([H])N([H])C(=O)C1([H])N(C(=O)C([H])(N([H])C(=O)C([H])(N([H])C([H])([H])[H])C([H])([H])[H])C(C([H])([H])[H])(C([H])([H])[H])C([H])([H])[H])C([H])([H])c2c([H])c(OC([H])([H])C([H])([H])C([H])([H])c3c([H])c(N([H])[H])c([H])c(C([H])([H])C([H])([H])N([H])C(=O)N4C([H])([H])C([H])([H])C([H])([H])C([H])(n5nc(-c6c([H])c([H])c(Oc7c([H])c([H])c(F)c([H])c7F)c([H])c6[H])c(C(=O)N([H])[H])c5N([H])[H])C4([H])[H])c3[H])c([H])c([H])c2C1([H])[H]

>  <smiles>  (73) 
[H]c1c([H])c([H])c2c(c1[H])C([H])([H])C([H])([H])C([H])([H])C2([H])N([H])C(=O)C1([H])N(C(=O)C([H])(N([H])C(=O)C([H])(N([H])C([H])([H])[H])C([H])([H])[H])C(C([H])([H])[H])(C([H])([H])[H])C([H])([H])[H])C([H])([H])c2c([H])c(OC([H])([H])C([H])([H])C([H])([H])c3c([H])c(N([H])[H])c([H])c(C([H])([H])C([H])([H])N([H])C(=O)N4C([H])([H])C([H])([H])C([H])([H])C([H])(n5nc(-c6c([H])c([H])c(Oc7c([H])c([H])c(F)c([H])c7F)c([H])c6[H])c(C(=O)N([H])[H])c5N([H])[H])C4([H])[H])c3[H])c([H])c([H])c2C1([H])[H]

$$$$
73:0:0
     RDKit          3D

 93101  0  0  1  0  0  0  0  0999 V2000
  -29.3680  -21.3710   18.3270 C   0  0  0  0  0  3  0  0  0  0  0  0
  -29.1280  -22.5960   17.6780 C   0  0  0  0  0  3  0  0  0  0  0  0
  -28.9330  -22.4570   20.4330 C   0  0  0  0  0  3  0  0  0  0  0  0
  -29.2910  -21.2350   19.7290 C   0  0  0  0  0  0  0  0  0  0  0  0
  -28.7910  -23.7720   18.3810 C   0  0  0  0  0  0  0  0  0  0  0  0
  -28.6740  -23.7440   19.7960 C   0  0  0  0  0  0  0  0  0  0  0  0
  -28.5490  -25.0290   17.5620 C   0  0  0  0  0  1  0  0  0  0  0  0
  -29.6270  -19.8360   20.4490 C   0  0  0  0  0  2  0  0  0  0  0  0
  -30.5570  -18.3860   18.4400 C   0  0  0  0  0  1  0  0  0  0  0  0
  -28.2270  -17.9750   19.3060 C   0  0  0  0  0  1  0  0  0  0  0  0
  -29.6680  -18.3630   19.7170 C   0  0  2  0  0  0  0  0  0  0  0  0
  -30.6110  -14.6880   20.4560 C   0  0  0  0  0  0  0  0  0  0  0  0
  -30.3650  -12.4250   19.4450 C   0  0  0  0  0  2  0  0  0  0  0  0
  -29.4490  -12.5070   18.2080 C   0  0  0  0  0  2  0  0  0  0  0  0
  -27.9690  -12.3540   18.6110 C   0  0  0  0  0  2  0  0  0  0  0  0
  -27.5790  -13.2540   19.8160 C   0  0  0  0  0  3  0  0  0  0  0  0
  -28.6240  -13.1790   20.9500 C   0  0  0  0  0  2  0  0  0  0  0  0
  -29.9320  -13.4990   20.3610 N   0  0  0  0  0  0  0  0  0  0  0  0
  -31.8290  -14.7090   20.2680 O   0  0  0  0  0  0  0  0  0  0  0  0
  -30.3040  -17.1610   20.5730 C   0  0  0  0  0  0  0  0  0  0  0  0
  -29.8690  -15.8530   20.4350 N   0  0  0  0  0  0  0  0  0  0  0  0
  -31.2590  -17.4420   21.3030 O   0  0  0  0  0  0  0  0  0  0  0  0
  -28.9190  -15.7380   20.1320 H   0  0  0  0  0  0  0  0  0  0  0  0
  -25.1840  -13.8640   20.5080 C   0  0  0  0  0  0  0  0  0  0  0  0
  -24.1070  -13.0980   20.8570 C   0  0  0  0  0  0  0  0  0  0  0  0
  -24.5610  -11.7420   20.8320 C   0  0  0  0  0  0  0  0  0  0  0  0
  -26.2250  -12.9770   20.2880 N   0  0  0  0  0  0  0  0  0  0  0  0
  -25.8570  -11.6960   20.5510 N   0  0  0  0  0  0  0  0  0  0  0  0
  -23.8210  -10.4860   21.0080 C   0  0  0  0  0  0  0  0  0  0  0  0
  -24.2510   -9.4960   21.9190 C   0  0  0  0  0  3  0  0  0  0  0  0
  -23.5130   -8.3050   22.0840 C   0  0  0  0  0  3  0  0  0  0  0  0
  -22.3280   -8.0940   21.3390 C   0  0  0  0  0  0  0  0  0  0  0  0
  -21.9170   -9.0720   20.4170 C   0  0  0  0  0  3  0  0  0  0  0  0
  -22.6550  -10.2560   20.2500 C   0  0  0  0  0  3  0  0  0  0  0  0
  -21.5600   -6.9570   21.4130 O   0  0  0  0  0  0  0  0  0  0  0  0
  -21.5430   -6.1730   22.5400 C   0  0  0  0  0  0  0  0  0  0  0  0
  -21.1980   -6.6980   23.8050 C   0  0  0  0  0  3  0  0  0  0  0  0
  -21.1240   -5.8440   24.9230 C   0  0  0  0  0  3  0  0  0  0  0  0
  -21.3810   -4.4670   24.7790 C   0  0  0  0  0  0  0  0  0  0  0  0
  -21.7170   -3.9440   23.5180 C   0  0  0  0  0  3  0  0  0  0  0  0
  -21.7940   -4.7940   22.4010 C   0  0  0  0  0  0  0  0  0  0  0  0
  -22.0950   -4.2810   21.1840 F   0  0  0  0  0  0  0  0  0  0  0  0
  -21.3030   -3.6440   25.8520 F   0  0  0  0  0  0  0  0  0  0  0  0
  -22.7070  -13.5830   21.1010 C   0  0  0  0  0  0  0  0  0  0  0  0
  -21.9590  -12.8920   21.9550 N   0  0  0  0  0  0  0  0  0  0  0  0
  -22.2840  -14.6080   20.5690 O   0  0  0  0  0  0  0  0  0  0  0  0
  -22.3160  -12.0650   22.4100 H   0  0  0  0  0  0  0  0  0  0  0  0
  -21.0180  -13.1980   22.1610 H   0  0  0  0  0  0  0  0  0  0  0  0
  -25.3620  -15.2340   20.3330 N   0  0  0  0  0  0  0  0  0  0  0  0
  -24.6000  -15.8960   20.4330 H   0  0  0  0  0  0  0  0  0  0  0  0
  -26.2100  -15.6620   19.9900 H   0  0  0  0  0  0  0  0  0  0  0  0
  -28.1740  -25.0180   20.6160 C   0  0  0  0  0  2  0  0  0  0  0  0
  -28.3500  -26.4260   20.1360 O   0  0  0  0  0  0  0  0  0  0  0  0
  -24.7060  -31.9210   23.1810 C   0  0  0  0  0  0  0  0  0  0  0  0
  -27.2400  -27.2930   20.1460 C   0  0  0  0  0  0  0  0  0  0  0  0
  -23.4700  -30.5110   21.5780 C   0  0  0  0  0  3  0  0  0  0  0  0
  -24.8910  -28.9320   20.1490 C   0  0  0  0  0  0  0  0  0  0  0  0
  -26.0130  -30.8020   21.3590 C   0  0  0  0  0  2  0  0  0  0  0  0
  -26.0730  -29.4180   20.7190 C   0  0  0  0  0  0  0  0  0  0  0  0
  -27.2570  -28.6150   20.6980 C   0  0  0  0  0  3  0  0  0  0  0  0
  -26.0320  -26.8580   19.5660 C   0  0  0  0  0  3  0  0  0  0  0  0
  -24.8720  -27.6580   19.5600 C   0  0  0  0  0  3  0  0  0  0  0  0
  -23.6590  -29.8160   20.2040 C   0  0  0  0  0  2  0  0  0  0  0  0
  -24.7510  -31.0910   22.0970 N   0  0  0  0  0  0  0  0  0  0  0  0
  -23.6250  -32.2390   23.6950 O   0  0  0  0  0  0  0  0  0  0  0  0
  -22.8080  -29.5100   22.5560 C   0  0  0  0  0  0  0  0  0  0  0  0
  -21.4810  -29.3430   22.4450 N   0  0  0  0  0  0  0  0  0  0  0  0
  -23.4910  -28.8850   23.3720 O   0  0  0  0  0  0  0  0  0  0  0  0
  -20.9910  -29.8950   21.7550 H   0  0  0  0  0  0  0  0  0  0  0  0
  -18.0990  -28.1690   22.9810 C   0  0  0  0  0  0  0  0  0  0  0  0
  -20.6600  -28.4170   23.2290 C   0  0  0  0  0  3  0  0  0  0  0  0
  -20.7520  -26.9810   22.6670 C   0  0  0  0  0  2  0  0  0  0  0  0
  -19.6410  -26.6540   21.6630 C   0  0  0  0  0  2  0  0  0  0  0  0
  -18.2630  -26.8120   22.3160 C   0  0  0  0  0  2  0  0  0  0  0  0
  -19.2250  -28.9290   23.3940 C   0  0  0  0  0  0  0  0  0  0  0  0
  -19.0170  -30.1990   23.9770 C   0  0  0  0  0  3  0  0  0  0  0  0
  -17.7160  -30.7070   24.1500 C   0  0  0  0  0  3  0  0  0  0  0  0
  -16.6050  -29.9440   23.7530 C   0  0  0  0  0  3  0  0  0  0  0  0
  -16.7970  -28.6760   23.1750 C   0  0  0  0  0  3  0  0  0  0  0  0
  -26.0010  -32.5360   23.7980 C   0  0  0  0  0  3  0  0  0  0  0  0
  -26.5330  -31.7490   25.0580 C   0  0  1  0  0  0  0  0  0  0  0  0
  -25.4570  -31.5090   26.1420 C   0  0  0  0  0  1  0  0  0  0  0  0
  -27.1060  -30.3730   24.6470 C   0  0  0  0  0  1  0  0  0  0  0  0
  -27.7000  -32.5330   25.7060 C   0  0  0  0  0  1  0  0  0  0  0  0
  -25.7020  -33.9310   24.1530 N   0  0  0  0  0  0  0  0  0  0  0  0
  -26.0130  -34.9930   23.3980 C   0  0  0  0  0  0  0  0  0  0  0  0
  -26.6550  -34.9000   22.3480 O   0  0  0  0  0  0  0  0  0  0  0  0
  -25.1340  -34.0760   24.9750 H   0  0  0  0  0  0  0  0  0  0  0  0
  -24.2690  -36.7830   23.1150 C   0  0  0  0  0  1  0  0  0  0  0  0
  -25.5340  -36.3750   23.8840 C   0  0  0  0  0  3  0  0  0  0  0  0
  -27.6950  -37.2500   24.6520 C   0  0  0  0  0  1  0  0  0  0  0  0
  -26.5600  -37.4320   23.7520 N   0  0  0  0  0  0  0  0  0  0  0  0
  -26.1570  -38.3480   23.9320 H   0  0  0  0  0  0  0  0  0  0  0  0
  1  4  1  0
  2  1  2  0
  2  5  1  0
  4  3  2  0
  4  8  1  0
  5  6  2  0
  6  3  1  0
  6 52  1  0
  7  5  1  0
 11  9  1  6
 10 11  1  0
 11  8  1  0
 11 20  1  0
 13 18  1  0
 14 15  1  0
 14 13  1  0
 16 15  1  0
 16 27  1  0
 16 17  1  0
 18 12  1  0
 18 17  1  0
 19 12  2  0
 20 22  2  0
 21 12  1  0
 21 20  1  0
 23 21  1  0
 24 25  2  0
 25 44  1  0
 26 25  1  0
 26 29  1  0
 27 24  1  0
 27 28  1  0
 28 26  2  0
 29 30  1  0
 30 31  2  0
 32 35  1  0
 32 31  1  0
 33 32  2  0
 34 33  1  0
 34 29  2  0
 35 36  1  0
 36 37  1  0
 37 38  2  0
 39 38  1  0
 39 43  1  0
 40 39  2  0
 41 36  2  0
 41 40  1  0
 42 41  1  0
 44 45  1  0
 45 48  1  0
 45 47  1  0
 46 44  2  0
 49 50  1  0
 49 24  1  0
 51 49  1  0
 53 55  1  0
 53 52  1  0
 54 65  2  0
 55 60  1  0
 56 64  1  0
 56 66  1  0
 57 63  1  0
 57 59  1  0
 58 64  1  0
 59 58  1  0
 60 59  2  0
 61 55  2  0
 62 61  1  0
 62 57  2  0
 63 56  1  0
 64 54  1  0
 66 68  2  0
 67 66  1  0
 69 67  1  0
 70 79  2  0
 70 75  1  0
 71 67  1  0
 71 75  1  0
 72 71  1  0
 73 74  1  0
 73 72  1  0
 74 70  1  0
 75 76  2  0
 76 77  1  0
 78 77  2  0
 79 78  1  0
 80 54  1  0
 80 85  1  0
 80 81  1  0
 81 84  1  1
 81 82  1  0
 83 81  1  0
 85 88  1  0
 86 90  1  0
 86 85  1  0
 87 86  2  0
 90 89  1  0
 92 90  1  0
 92 93  1  0
 92 91  1  0
M  ISO  4  12 100  21 100  52 101  53 101
M  END
>  <TORSDO>  (74) 
F 19

>  <SCORE>  (74) 
-14.284

>  <name>  (74) 
73

>  <ligand_id>  (74) 
73

>  <original_smiles>  (74) 
[H]c1c([H])c([H])c2c(c1[H])C([H])([H])C([H])([H])C([H])([H])C2([H])N([H])C(=O)C1([H])N(C(=O)C([H])(N([H])C(=O)C([H])(N([H])C([H])([H])[H])C([H])([H])[H])C(C([H])([H])[H])(C([H])([H])[H])C([H])([H])[H])C([H])([H])c2c([H])c(OC([H])([H])c3c([H])c(C([H])([H])C(C(=O)N([H])C(=O)N4C([H])([H])C([H])([H])C([H])([H])C([H])(n5nc(-c6c([H])c([H])c(Oc7c([H])c([H])c(F)c([H])c7F)c([H])c6[H])c(C(=O)N([H])[H])c5N([H])[H])C4([H])[H])(C([H])([H])[H])C([H])([H])[H])c([H])c([H])c3C([H])([H])[H])c([H])c([H])c2C1([H])[H]

>  <smiles>  (74) 
[H]c1c([H])c([H])c2c(c1[H])C([H])([H])C([H])([H])C([H])([H])C2([H])N([H])C(=O)C1([H])N(C(=O)C([H])(N([H])C(=O)C([H])(N([H])C([H])([H])[H])C([H])([H])[H])C(C([H])([H])[H])(C([H])([H])[H])C([H])([H])[H])C([H])([H])c2c([H])c(OC([H])([H])c3c([H])c(C([H])([H])C(C(=O)N([H])C(=O)N4C([H])([H])C([H])([H])C([H])([H])C([H])(n5nc(-c6c([H])c([H])c(Oc7c([H])c([H])c(F)c([H])c7F)c([H])c6[H])c(C(=O)N([H])[H])c5N([H])[H])C4([H])[H])(C([H])([H])[H])C([H])([H])[H])c([H])c([H])c3C([H])([H])[H])c([H])c([H])c2C1([H])[H]

$$$$
74:0:0
     RDKit          3D

 94103  0  0  1  0  0  0  0  0999 V2000
  -29.3190  -22.4480   21.1840 C   0  0  0  0  0  0  0  0  0  0  0  0
  -29.8960  -23.3980   20.4340 N   0  0  0  0  0  0  0  0  0  0  0  0
  -28.3320  -22.6730   21.8870 O   0  0  0  0  0  0  0  0  0  0  0  0
  -30.6750  -23.1000   19.8630 H   0  0  0  0  0  0  0  0  0  0  0  0
  -30.7400  -14.4800   20.2480 C   0  0  0  0  0  0  0  0  0  0  0  0
  -30.3840  -12.3280   19.1280 C   0  0  0  0  0  2  0  0  0  0  0  0
  -29.4180  -12.5560   17.9480 C   0  0  0  0  0  2  0  0  0  0  0  0
  -27.9540  -12.4260   18.4150 C   0  0  0  0  0  2  0  0  0  0  0  0
  -27.6480  -13.2480   19.6970 C   0  0  0  0  0  3  0  0  0  0  0  0
  -28.7370  -13.0450   20.7750 C   0  0  0  0  0  2  0  0  0  0  0  0
  -30.0420  -13.3190   20.1560 N   0  0  0  0  0  0  0  0  0  0  0  0
  -31.9110  -14.5910   19.8730 O   0  0  0  0  0  0  0  0  0  0  0  0
  -32.1160  -19.7250   20.8490 C   0  0  0  0  0  2  0  0  0  0  0  0
  -31.4760  -21.1110   20.8040 C   0  0  0  0  0  2  0  0  0  0  0  0
  -31.3530  -18.7690   19.9240 C   0  0  0  0  0  2  0  0  0  0  0  0
  -29.1220  -17.7310   19.3010 C   0  0  0  0  0  2  0  0  0  0  0  0
  -29.6970  -17.8270   21.6580 C   0  0  0  0  0  2  0  0  0  0  0  0
  -29.2000  -20.0090   20.3790 C   0  0  0  0  0  2  0  0  0  0  0  0
  -29.7320  -16.3270   19.1580 C   0  0  0  0  0  2  0  0  0  0  0  0
  -30.3040  -16.4040   21.6260 C   0  0  0  0  0  2  0  0  0  0  0  0
  -29.9840  -21.0560   21.2120 C   0  0  0  0  0  3  0  0  0  0  0  0
  -29.8620  -18.5980   20.3300 C   0  0  1  0  0  0  0  0  0  0  0  0
  -29.9960  -15.5970   20.4240 N   0  0  0  0  0  0  0  0  0  0  0  0
  -25.2710  -13.8440   20.4740 C   0  0  0  0  0  0  0  0  0  0  0  0
  -24.2120  -13.0660   20.8570 C   0  0  0  0  0  0  0  0  0  0  0  0
  -24.6740  -11.7150   20.7980 C   0  0  0  0  0  0  0  0  0  0  0  0
  -26.3110  -12.9660   20.2090 N   0  0  0  0  0  0  0  0  0  0  0  0
  -25.9570  -11.6810   20.4620 N   0  0  0  0  0  0  0  0  0  0  0  0
  -23.9550  -10.4500   20.9890 C   0  0  0  0  0  0  0  0  0  0  0  0
  -24.3880   -9.4910   21.9310 C   0  0  0  0  0  3  0  0  0  0  0  0
  -23.6700   -8.2890   22.1110 C   0  0  0  0  0  3  0  0  0  0  0  0
  -22.5050   -8.0370   21.3450 C   0  0  0  0  0  0  0  0  0  0  0  0
  -22.0930   -8.9850   20.3920 C   0  0  0  0  0  3  0  0  0  0  0  0
  -22.8110  -10.1790   20.2120 C   0  0  0  0  0  3  0  0  0  0  0  0
  -21.7600   -6.8880   21.4330 O   0  0  0  0  0  0  0  0  0  0  0  0
  -21.6650   -6.1780   22.6030 C   0  0  0  0  0  0  0  0  0  0  0  0
  -21.1510   -6.7540   23.7850 C   0  0  0  0  0  3  0  0  0  0  0  0
  -21.0070   -5.9690   24.9460 C   0  0  0  0  0  3  0  0  0  0  0  0
  -21.3660   -4.6080   24.9250 C   0  0  0  0  0  0  0  0  0  0  0  0
  -21.8720   -4.0310   23.7490 C   0  0  0  0  0  3  0  0  0  0  0  0
  -22.0180   -4.8130   22.5890 C   0  0  0  0  0  0  0  0  0  0  0  0
  -22.4870   -4.2470   21.4510 F   0  0  0  0  0  0  0  0  0  0  0  0
  -21.2200   -3.8510   26.0380 F   0  0  0  0  0  0  0  0  0  0  0  0
  -22.8210  -13.5380   21.1690 C   0  0  0  0  0  0  0  0  0  0  0  0
  -22.1200  -12.8340   22.0500 N   0  0  0  0  0  0  0  0  0  0  0  0
  -22.3660  -14.5660   20.6690 O   0  0  0  0  0  0  0  0  0  0  0  0
  -22.5000  -12.0020   22.4770 H   0  0  0  0  0  0  0  0  0  0  0  0
  -21.1870  -13.1290   22.3020 H   0  0  0  0  0  0  0  0  0  0  0  0
  -25.4320  -15.2170   20.3110 N   0  0  0  0  0  0  0  0  0  0  0  0
  -24.6750  -15.8760   20.4580 H   0  0  0  0  0  0  0  0  0  0  0  0
  -26.2920  -15.6590   20.0090 H   0  0  0  0  0  0  0  0  0  0  0  0
  -29.7240  -24.8410   20.5760 C   0  0  0  0  0  2  0  0  0  0  0  0
  -28.4180  -25.3970   19.9870 C   0  0  0  0  0  2  0  0  0  0  0  0
  -28.4420  -26.8060   20.2020 O   0  0  0  0  0  0  0  0  0  0  0  0
  -24.5810  -31.9060   23.2770 C   0  0  0  0  0  0  0  0  0  0  0  0
  -27.2470  -27.4890   20.1900 C   0  0  0  0  0  0  0  0  0  0  0  0
  -23.3840  -30.5020   21.6300 C   0  0  0  0  0  3  0  0  0  0  0  0
  -24.8440  -28.9750   20.2040 C   0  0  0  0  0  0  0  0  0  0  0  0
  -25.9080  -30.8690   21.4430 C   0  0  0  0  0  2  0  0  0  0  0  0
  -25.9960  -29.5030   20.7980 C   0  0  0  0  0  0  0  0  0  0  0  0
  -27.1990  -28.7680   20.7860 C   0  0  0  0  0  3  0  0  0  0  0  0
  -26.0740  -26.9690   19.5920 C   0  0  0  0  0  3  0  0  0  0  0  0
  -24.8770  -27.7060   19.5980 C   0  0  0  0  0  3  0  0  0  0  0  0
  -23.5990  -29.8290   20.2480 C   0  0  0  0  0  2  0  0  0  0  0  0
  -24.6430  -31.1020   22.1780 N   0  0  0  0  0  0  0  0  0  0  0  0
  -23.4950  -32.1950   23.7940 O   0  0  0  0  0  0  0  0  0  0  0  0
  -22.7350  -29.4730   22.5840 C   0  0  0  0  0  0  0  0  0  0  0  0
  -21.4120  -29.2850   22.4470 N   0  0  0  0  0  0  0  0  0  0  0  0
  -23.4170  -28.8470   23.4000 O   0  0  0  0  0  0  0  0  0  0  0  0
  -20.9240  -29.8480   21.7640 H   0  0  0  0  0  0  0  0  0  0  0  0
  -18.0360  -28.0880   22.9170 C   0  0  0  0  0  0  0  0  0  0  0  0
  -20.5920  -28.3410   23.2050 C   0  0  0  0  0  3  0  0  0  0  0  0
  -20.6970  -26.9150   22.6160 C   0  0  0  0  0  2  0  0  0  0  0  0
  -19.5990  -26.6000   21.5940 C   0  0  0  0  0  2  0  0  0  0  0  0
  -18.2150  -26.7430   22.2330 C   0  0  0  0  0  2  0  0  0  0  0  0
  -19.1530  -28.8450   23.3590 C   0  0  0  0  0  0  0  0  0  0  0  0
  -18.9320  -30.1070   23.9540 C   0  0  0  0  0  3  0  0  0  0  0  0
  -17.6280  -30.6080   24.1180 C   0  0  0  0  0  3  0  0  0  0  0  0
  -16.5250  -29.8460   23.6940 C   0  0  0  0  0  3  0  0  0  0  0  0
  -16.7300  -28.5900   23.0970 C   0  0  0  0  0  3  0  0  0  0  0  0
  -25.8660  -32.5260   23.9140 C   0  0  0  0  0  3  0  0  0  0  0  0
  -25.5690  -33.9310   24.2200 N   0  0  0  0  0  0  0  0  0  0  0  0
  -25.8920  -34.9650   23.4320 C   0  0  0  0  0  0  0  0  0  0  0  0
  -26.5460  -34.8370   22.3940 O   0  0  0  0  0  0  0  0  0  0  0  0
  -24.9870  -34.1040   25.0280 H   0  0  0  0  0  0  0  0  0  0  0  0
  -24.1490  -36.7420   23.0790 C   0  0  0  0  0  1  0  0  0  0  0  0
  -25.4150  -36.3640   23.8650 C   0  0  0  0  0  3  0  0  0  0  0  0
  -27.5680  -37.2780   24.6140 C   0  0  0  0  0  1  0  0  0  0  0  0
  -26.4410  -37.4150   23.6930 N   0  0  0  0  0  0  0  0  0  0  0  0
  -26.0360  -38.3380   23.8220 H   0  0  0  0  0  0  0  0  0  0  0  0
  -26.3570  -31.7640   25.2050 C   0  0  1  0  0  0  0  0  0  0  0  0
  -25.2470  -31.5450   26.2580 C   0  0  0  0  0  1  0  0  0  0  0  0
  -26.9400  -30.3820   24.8330 C   0  0  0  0  0  1  0  0  0  0  0  0
  -27.5020  -32.5580   25.8790 C   0  0  0  0  0  1  0  0  0  0  0  0
  1  3  2  0
  2 52  1  0
  2  1  1  0
  4  2  1  0
  5 23  1  0
  6 11  1  0
  7  8  1  0
  7  6  1  0
  9  8  1  0
  9 27  1  0
  9 10  1  0
 11  5  1  0
 11 10  1  0
 12  5  2  0
 14 13  1  0
 14 21  1  0
 22 15  1  6
 15 13  1  0
 18 21  1  0
 19 16  1  0
 19 23  1  0
 20 17  1  0
 21  1  1  0
 22 16  1  0
 22 18  1  0
 22 17  1  0
 23 20  1  0
 24 25  2  0
 25 44  1  0
 26 25  1  0
 26 29  1  0
 27 28  1  0
 27 24  1  0
 28 26  2  0
 29 30  1  0
 30 31  2  0
 32 35  1  0
 32 31  1  0
 33 32  2  0
 34 33  1  0
 34 29  2  0
 35 36  1  0
 36 37  1  0
 37 38  2  0
 39 38  1  0
 39 43  1  0
 40 39  2  0
 41 36  2  0
 41 40  1  0
 42 41  1  0
 44 45  1  0
 45 48  1  0
 45 47  1  0
 46 44  2  0
 49 50  1  0
 49 24  1  0
 51 49  1  0
 53 54  1  0
 53 52  1  0
 55 66  2  0
 56 54  1  0
 56 61  1  0
 57 65  1  0
 57 67  1  0
 58 64  1  0
 58 60  1  0
 59 65  1  0
 60 59  1  0
 61 60  2  0
 62 63  1  0
 62 56  2  0
 63 58  2  0
 64 57  1  0
 65 55  1  0
 67 69  2  0
 68 67  1  0
 70 68  1  0
 71 80  2  0
 71 76  1  0
 72 68  1  0
 72 76  1  0
 73 72  1  0
 74 75  1  0
 74 73  1  0
 75 71  1  0
 76 77  2  0
 77 78  1  0
 79 78  2  0
 80 79  1  0
 81 55  1  0
 81 82  1  0
 81 91  1  0
 82 85  1  0
 83 87  1  0
 83 82  1  0
 84 83  2  0
 87 86  1  0
 89 90  1  0
 89 87  1  0
 89 88  1  0
 91 94  1  1
 91 92  1  0
 93 91  1  0
M  ISO  4   5 100  23 100  53 101  54 101
M  END
>  <TORSDO>  (75) 
F 18

>  <SCORE>  (75) 
-14.825

>  <name>  (75) 
74

>  <ligand_id>  (75) 
74

>  <original_smiles>  (75) 
[H]c1c([H])c([H])c2c(c1[H])C([H])([H])C([H])([H])C([H])([H])C2([H])N([H])C(=O)C1([H])N(C(=O)C([H])(N([H])C(=O)C([H])(N([H])C([H])([H])[H])C([H])([H])[H])C(C([H])([H])[H])(C([H])([H])[H])C([H])([H])[H])C([H])([H])c2c([H])c(OC([H])([H])C([H])([H])N([H])C(=O)C3([H])C([H])([H])C([H])([H])C([H])([H])C4(C([H])([H])C([H])([H])N(C(=O)N5C([H])([H])C([H])([H])C([H])([H])C([H])(n6nc(-c7c([H])c([H])c(Oc8c([H])c([H])c(F)c([H])c8F)c([H])c7[H])c(C(=O)N([H])[H])c6N([H])[H])C5([H])[H])C([H])([H])C4([H])[H])C3([H])[H])c([H])c([H])c2C1([H])[H]

>  <smiles>  (75) 
[H]c1c([H])c([H])c2c(c1[H])C([H])([H])C([H])([H])C([H])([H])C2([H])N([H])C(=O)C1([H])N(C(=O)C([H])(N([H])C(=O)C([H])(N([H])C([H])([H])[H])C([H])([H])[H])C(C([H])([H])[H])(C([H])([H])[H])C([H])([H])[H])C([H])([H])c2c([H])c(OC([H])([H])C([H])([H])N([H])C(=O)C3([H])C([H])([H])C([H])([H])C([H])([H])C4(C([H])([H])C([H])([H])N(C(=O)N5C([H])([H])C([H])([H])C([H])([H])C([H])(n6nc(-c7c([H])c([H])c(Oc8c([H])c([H])c(F)c([H])c8F)c([H])c7[H])c(C(=O)N([H])[H])c6N([H])[H])C5([H])[H])C([H])([H])C4([H])[H])C3([H])[H])c([H])c([H])c2C1([H])[H]

$$$$
75:0:0
     RDKit          3D

 94104  0  0  1  0  0  0  0  0999 V2000
  -28.8190  -23.0480   21.8100 C   0  0  0  0  0  3  0  0  0  0  0  0
  -28.6410  -24.3200   21.2310 C   0  0  0  0  0  3  0  0  0  0  0  0
  -29.2370  -23.4110   19.0550 C   0  0  0  0  0  3  0  0  0  0  0  0
  -29.2180  -21.9510   21.0170 C   0  0  0  0  0  0  0  0  0  0  0  0
  -29.4150  -22.1360   19.6270 C   0  0  0  0  0  0  0  0  0  0  0  0
  -28.8600  -24.5090   19.8500 C   0  0  0  0  0  0  0  0  0  0  0  0
  -29.3990  -20.5840   21.6750 C   0  0  0  0  0  2  0  0  0  0  0  0
  -29.8410  -20.9920   18.7280 C   0  0  0  0  0  2  0  0  0  0  0  0
  -29.5870  -19.6140   19.3460 C   0  0  0  0  0  2  0  0  0  0  0  0
  -30.1270  -19.5420   20.7950 C   0  0  0  0  0  3  0  0  0  0  0  0
  -30.0650  -18.1840   21.4040 N   0  0  0  0  0  4  0  0  0  0  0  0
  -29.1460  -18.0420   21.7900 H   0  0  0  0  0  0  0  0  0  0  0  0
  -30.7130  -18.1590   22.1770 H   0  0  0  0  0  0  0  0  0  0  0  0
  -29.1290  -16.4720   19.8890 C   0  0  0  0  0  2  0  0  0  0  0  0
  -29.9520  -15.6630   20.8780 C   0  0  0  0  0  3  0  0  0  0  0  0
  -30.3800  -17.0720   20.4740 C   0  0  0  0  0  3  0  0  0  0  0  0
  -30.6780  -14.5060   20.2550 C   0  0  0  0  0  0  0  0  0  0  0  0
  -30.3170  -12.3900   19.0500 C   0  0  0  0  0  2  0  0  0  0  0  0
  -29.3400  -12.6510   17.8840 C   0  0  0  0  0  2  0  0  0  0  0  0
  -27.8790  -12.5100   18.3540 C   0  0  0  0  0  2  0  0  0  0  0  0
  -27.5880  -13.3160   19.6460 C   0  0  0  0  0  3  0  0  0  0  0  0
  -28.6740  -13.0540   20.7140 C   0  0  0  0  0  2  0  0  0  0  0  0
  -29.9910  -13.3400   20.1220 N   0  0  0  0  0  0  0  0  0  0  0  0
  -31.7860  -14.6850   19.7410 O   0  0  0  0  0  0  0  0  0  0  0  0
  -25.2130  -13.9350   20.4250 C   0  0  0  0  0  0  0  0  0  0  0  0
  -24.1530  -13.1650   20.8230 C   0  0  0  0  0  0  0  0  0  0  0  0
  -24.6080  -11.8120   20.7720 C   0  0  0  0  0  0  0  0  0  0  0  0
  -26.2480  -13.0500   20.1600 N   0  0  0  0  0  0  0  0  0  0  0  0
  -25.8880  -11.7690   20.4260 N   0  0  0  0  0  0  0  0  0  0  0  0
  -23.8850  -10.5520   20.9760 C   0  0  0  0  0  0  0  0  0  0  0  0
  -24.3380   -9.5800   21.8950 C   0  0  0  0  0  3  0  0  0  0  0  0
  -23.6160   -8.3830   22.0870 C   0  0  0  0  0  3  0  0  0  0  0  0
  -22.4250   -8.1490   21.3580 C   0  0  0  0  0  0  0  0  0  0  0  0
  -21.9910   -9.1090   20.4270 C   0  0  0  0  0  3  0  0  0  0  0  0
  -22.7150  -10.2980   20.2340 C   0  0  0  0  0  3  0  0  0  0  0  0
  -21.6710   -7.0060   21.4610 O   0  0  0  0  0  0  0  0  0  0  0  0
  -21.6460   -6.2610   22.6130 C   0  0  0  0  0  0  0  0  0  0  0  0
  -21.2390   -6.8120   23.8470 C   0  0  0  0  0  3  0  0  0  0  0  0
  -21.1610   -5.9930   24.9910 C   0  0  0  0  0  3  0  0  0  0  0  0
  -21.4810   -4.6260   24.9020 C   0  0  0  0  0  0  0  0  0  0  0  0
  -21.8820   -4.0740   23.6730 C   0  0  0  0  0  3  0  0  0  0  0  0
  -21.9610   -4.8900   22.5310 C   0  0  0  0  0  0  0  0  0  0  0  0
  -22.3280   -4.3490   21.3440 F   0  0  0  0  0  0  0  0  0  0  0  0
  -21.3980   -3.8370   26.0000 F   0  0  0  0  0  0  0  0  0  0  0  0
  -22.7650  -13.6450   21.1370 C   0  0  0  0  0  0  0  0  0  0  0  0
  -22.0590  -12.9440   22.0190 N   0  0  0  0  0  0  0  0  0  0  0  0
  -22.3150  -14.6750   20.6370 O   0  0  0  0  0  0  0  0  0  0  0  0
  -22.4350  -12.1100   22.4440 H   0  0  0  0  0  0  0  0  0  0  0  0
  -21.1300  -13.2480   22.2740 H   0  0  0  0  0  0  0  0  0  0  0  0
  -25.3760  -15.3050   20.2450 N   0  0  0  0  0  0  0  0  0  0  0  0
  -24.6080  -15.9580   20.3570 H   0  0  0  0  0  0  0  0  0  0  0  0
  -26.2040  -15.7320   19.8530 H   0  0  0  0  0  0  0  0  0  0  0  0
  -28.7470  -25.8770   19.2020 C   0  0  0  0  0  2  0  0  0  0  0  0
  -28.4780  -26.9210   20.1330 O   0  0  0  0  0  0  0  0  0  0  0  0
  -24.5860  -31.9400   23.2710 C   0  0  0  0  0  0  0  0  0  0  0  0
  -27.2520  -27.5460   20.1520 C   0  0  0  0  0  0  0  0  0  0  0  0
  -23.3780  -30.5340   21.6320 C   0  0  0  0  0  3  0  0  0  0  0  0
  -24.8320  -29.0050   20.2010 C   0  0  0  0  0  0  0  0  0  0  0  0
  -25.8990  -30.9070   21.4280 C   0  0  0  0  0  2  0  0  0  0  0  0
  -25.9860  -29.5400   20.7860 C   0  0  0  0  0  0  0  0  0  0  0  0
  -27.1910  -28.8120   20.7670 C   0  0  0  0  0  3  0  0  0  0  0  0
  -26.0730  -27.0000   19.5910 C   0  0  0  0  0  3  0  0  0  0  0  0
  -24.8670  -27.7300   19.6100 C   0  0  0  0  0  3  0  0  0  0  0  0
  -23.5850  -29.8570   20.2500 C   0  0  0  0  0  2  0  0  0  0  0  0
  -24.6400  -31.1380   22.1710 N   0  0  0  0  0  0  0  0  0  0  0  0
  -23.5020  -32.2280   23.7970 O   0  0  0  0  0  0  0  0  0  0  0  0
  -22.7360  -29.5060   22.5900 C   0  0  0  0  0  0  0  0  0  0  0  0
  -21.4150  -29.3080   22.4530 N   0  0  0  0  0  0  0  0  0  0  0  0
  -23.4220  -28.8900   23.4100 O   0  0  0  0  0  0  0  0  0  0  0  0
  -20.9230  -29.8580   21.7650 H   0  0  0  0  0  0  0  0  0  0  0  0
  -18.0530  -28.0720   22.9180 C   0  0  0  0  0  0  0  0  0  0  0  0
  -20.6040  -28.3610   23.2180 C   0  0  0  0  0  3  0  0  0  0  0  0
  -20.7310  -26.9300   22.6450 C   0  0  0  0  0  2  0  0  0  0  0  0
  -19.6440  -26.5930   21.6200 C   0  0  0  0  0  2  0  0  0  0  0  0
  -18.2540  -26.7230   22.2480 C   0  0  0  0  0  2  0  0  0  0  0  0
  -19.1580  -28.8480   23.3590 C   0  0  0  0  0  0  0  0  0  0  0  0
  -18.9180  -30.1100   23.9440 C   0  0  0  0  0  3  0  0  0  0  0  0
  -17.6060  -30.5980   24.0930 C   0  0  0  0  0  3  0  0  0  0  0  0
  -16.5160  -29.8200   23.6690 C   0  0  0  0  0  3  0  0  0  0  0  0
  -16.7410  -28.5580   23.0870 C   0  0  0  0  0  3  0  0  0  0  0  0
  -25.8750  -32.5610   23.8980 C   0  0  0  0  0  3  0  0  0  0  0  0
  -26.3870  -31.7910   25.1780 C   0  0  1  0  0  0  0  0  0  0  0  0
  -25.2910  -31.5620   26.2420 C   0  0  0  0  0  1  0  0  0  0  0  0
  -26.9640  -30.4100   24.7880 C   0  0  0  0  0  1  0  0  0  0  0  0
  -27.5400  -32.5820   25.8390 C   0  0  0  0  0  1  0  0  0  0  0  0
  -25.5740  -33.9610   24.2200 N   0  0  0  0  0  0  0  0  0  0  0  0
  -25.9140  -35.0070   23.4540 C   0  0  0  0  0  0  0  0  0  0  0  0
  -26.5880  -34.8930   22.4260 O   0  0  0  0  0  0  0  0  0  0  0  0
  -24.9760  -34.1250   25.0170 H   0  0  0  0  0  0  0  0  0  0  0  0
  -24.1950  -36.8030   23.0760 C   0  0  0  0  0  1  0  0  0  0  0  0
  -25.4290  -36.3990   23.8990 C   0  0  0  0  0  3  0  0  0  0  0  0
  -27.5620  -37.2800   24.7400 C   0  0  0  0  0  1  0  0  0  0  0  0
  -26.4660  -37.4470   23.7870 N   0  0  0  0  0  0  0  0  0  0  0  0
  -26.0630  -38.3690   23.9290 H   0  0  0  0  0  0  0  0  0  0  0  0
  2  1  1  0
  3  5  2  0
  3  6  1  0
  4  7  1  0
  4  1  2  0
  5  4  1  0
  6  2  2  0
  8  9  1  0
  8  5  1  0
  9 10  1  0
 10 11  1  0
 10  7  1  0
 11 12  1  0
 11 13  1  0
 14 16  1  0
 14 15  1  0
 15 17  1  0
 16 15  1  0
 16 11  1  0
 18 23  1  0
 19 20  1  0
 19 18  1  0
 21 20  1  0
 21 28  1  0
 21 22  1  0
 23 17  1  0
 23 22  1  0
 24 17  2  0
 25 26  2  0
 26 45  1  0
 27 26  1  0
 27 30  1  0
 28 25  1  0
 28 29  1  0
 29 27  2  0
 30 31  1  0
 31 32  2  0
 33 36  1  0
 33 32  1  0
 34 33  2  0
 35 34  1  0
 35 30  2  0
 36 37  1  0
 37 38  1  0
 38 39  2  0
 40 39  1  0
 40 44  1  0
 41 40  2  0
 42 37  2  0
 42 41  1  0
 43 42  1  0
 45 46  1  0
 46 49  1  0
 46 48  1  0
 47 45  2  0
 50 51  1  0
 50 25  1  0
 52 50  1  0
 53  6  1  0
 53 54  1  0
 54 56  1  0
 55 66  2  0
 56 61  1  0
 57 65  1  0
 57 67  1  0
 58 64  1  0
 58 60  1  0
 59 65  1  0
 60 59  1  0
 61 60  2  0
 62 63  1  0
 62 56  2  0
 63 58  2  0
 64 57  1  0
 65 55  1  0
 67 69  2  0
 68 67  1  0
 70 68  1  0
 71 80  2  0
 71 76  1  0
 72 68  1  0
 72 76  1  0
 73 72  1  0
 74 75  1  0
 74 73  1  0
 75 71  1  0
 76 77  2  0
 77 78  1  0
 79 78  2  0
 80 79  1  0
 81 55  1  0
 81 86  1  0
 81 82  1  0
 82 85  1  1
 82 83  1  0
 84 82  1  0
 86 89  1  0
 87 91  1  0
 87 86  1  0
 88 87  2  0
 91 90  1  0
 93 91  1  0
 93 94  1  0
 93 92  1  0
M  ISO  4  15 100  17 100  53 101  54 101
M  END
>  <TORSDO>  (76) 
F 19

>  <SCORE>  (76) 
-14.422

>  <name>  (76) 
75

>  <ligand_id>  (76) 
75

>  <original_smiles>  (76) 
[H]c1c([H])c([H])c2c(c1[H])C([H])([H])C([H])([H])C([H])([H])C2([H])N([H])C(=O)C1([H])N(C(=O)C([H])(N([H])C(=O)C([H])(N([H])C([H])([H])[H])C([H])([H])[H])C(C([H])([H])[H])(C([H])([H])[H])C([H])([H])[H])C([H])([H])c2c([H])c(OC([H])([H])c3c([H])c([H])c4c(c3[H])C([H])([H])C([H])([H])C([H])([N+]([H])([H])C3([H])C([H])([H])C3([H])C(=O)N3C([H])([H])C([H])([H])C([H])([H])C([H])(n5nc(-c6c([H])c([H])c(Oc7c([H])c([H])c(F)c([H])c7F)c([H])c6[H])c(C(=O)N([H])[H])c5N([H])[H])C3([H])[H])C4([H])[H])c([H])c([H])c2C1([H])[H]

>  <smiles>  (76) 
[H]c1c([H])c([H])c2c(c1[H])C([H])([H])C([H])([H])C([H])([H])C2([H])N([H])C(=O)C1([H])N(C(=O)C([H])(N([H])C(=O)C([H])(N([H])C([H])([H])[H])C([H])([H])[H])C(C([H])([H])[H])(C([H])([H])[H])C([H])([H])[H])C([H])([H])c2c([H])c(OC([H])([H])c3c([H])c([H])c4c(c3[H])C([H])([H])C([H])([H])C([H])([N+]([H])([H])C3([H])C([H])([H])C3([H])C(=O)N3C([H])([H])C([H])([H])C([H])([H])C([H])(n5nc(-c6c([H])c([H])c(Oc7c([H])c([H])c(F)c([H])c7F)c([H])c6[H])c(C(=O)N([H])[H])c5N([H])[H])C3([H])[H])C4([H])[H])c([H])c([H])c2C1([H])[H]

$$$$
76:0:0
     RDKit          3D

 93102  0  0  1  0  0  0  0  0999 V2000
  -29.4540  -18.2070   17.7780 C   0  0  0  0  0  2  0  0  0  0  0  0
  -29.5670  -16.9060   18.5650 C   0  0  0  0  0  2  0  0  0  0  0  0
  -28.5330  -19.1980   18.5000 C   0  0  0  0  0  2  0  0  0  0  0  0
  -27.9300  -20.5660   20.4960 C   0  0  0  0  0  2  0  0  0  0  0  0
  -30.3670  -20.5220   19.6160 C   0  0  0  0  0  2  0  0  0  0  0  0
  -29.3240  -18.3150   20.7150 C   0  0  0  0  0  2  0  0  0  0  0  0
  -28.2560  -21.9940   21.0390 C   0  0  0  0  0  2  0  0  0  0  0  0
  -30.4920  -21.9440   20.2420 C   0  0  0  0  0  2  0  0  0  0  0  0
  -30.0800  -17.1040   20.0100 C   0  0  0  0  0  3  0  0  0  0  0  0
  -29.0730  -19.6620   19.8800 C   0  0  2  0  0  0  0  0  0  0  0  0
  -29.2270  -22.7300   20.1900 N   0  0  2  0  0  4  0  0  0  0  0  0
  -28.9010  -22.6840   19.2350 H   0  0  0  0  0  0  0  0  0  0  0  0
  -30.7460  -14.6860   20.4740 C   0  0  0  0  0  0  0  0  0  0  0  0
  -30.5380  -12.4540   19.4420 C   0  0  0  0  0  2  0  0  0  0  0  0
  -29.6140  -12.5970   18.2120 C   0  0  0  0  0  2  0  0  0  0  0  0
  -28.1350  -12.4440   18.6180 C   0  0  0  0  0  2  0  0  0  0  0  0
  -27.7610  -13.3010   19.8550 C   0  0  0  0  0  3  0  0  0  0  0  0
  -28.8040  -13.1540   20.9870 C   0  0  0  0  0  2  0  0  0  0  0  0
  -30.1230  -13.4720   20.4260 N   0  0  0  0  0  0  0  0  0  0  0  0
  -31.9110  -14.8340   20.0940 O   0  0  0  0  0  0  0  0  0  0  0  0
  -29.9400  -15.7680   20.6780 N   0  0  0  0  0  0  0  0  0  0  0  0
  -29.0220  -15.5480   21.0330 H   0  0  0  0  0  0  0  0  0  0  0  0
  -25.3560  -13.8890   20.5460 C   0  0  0  0  0  0  0  0  0  0  0  0
  -24.2870  -13.1130   20.9000 C   0  0  0  0  0  0  0  0  0  0  0  0
  -24.7550  -11.7630   20.8700 C   0  0  0  0  0  0  0  0  0  0  0  0
  -26.4060  -13.0140   20.3210 N   0  0  0  0  0  0  0  0  0  0  0  0
  -26.0480  -11.7290   20.5750 N   0  0  0  0  0  0  0  0  0  0  0  0
  -24.0310  -10.4970   21.0480 C   0  0  0  0  0  0  0  0  0  0  0  0
  -24.4410   -9.5390   22.0010 C   0  0  0  0  0  3  0  0  0  0  0  0
  -23.7180   -8.3370   22.1650 C   0  0  0  0  0  3  0  0  0  0  0  0
  -22.5680   -8.0870   21.3780 C   0  0  0  0  0  0  0  0  0  0  0  0
  -22.1770   -9.0340   20.4160 C   0  0  0  0  0  3  0  0  0  0  0  0
  -22.9010  -10.2270   20.2490 C   0  0  0  0  0  3  0  0  0  0  0  0
  -21.8200   -6.9380   21.4510 O   0  0  0  0  0  0  0  0  0  0  0  0
  -21.7210   -6.2160   22.6140 C   0  0  0  0  0  0  0  0  0  0  0  0
  -21.1920   -6.7780   23.7960 C   0  0  0  0  0  3  0  0  0  0  0  0
  -21.0430   -5.9810   24.9480 C   0  0  0  0  0  3  0  0  0  0  0  0
  -21.4120   -4.6220   24.9180 C   0  0  0  0  0  0  0  0  0  0  0  0
  -21.9340   -4.0610   23.7400 C   0  0  0  0  0  3  0  0  0  0  0  0
  -22.0850   -4.8550   22.5900 C   0  0  0  0  0  0  0  0  0  0  0  0
  -22.5690   -4.3020   21.4510 F   0  0  0  0  0  0  0  0  0  0  0  0
  -21.2610   -3.8550   26.0220 F   0  0  0  0  0  0  0  0  0  0  0  0
  -22.8870  -13.5840   21.1580 C   0  0  0  0  0  0  0  0  0  0  0  0
  -22.1470  -12.8770   22.0040 N   0  0  0  0  0  0  0  0  0  0  0  0
  -22.4560  -14.6170   20.6470 O   0  0  0  0  0  0  0  0  0  0  0  0
  -22.5080  -12.0410   22.4390 H   0  0  0  0  0  0  0  0  0  0  0  0
  -21.2080  -13.1770   22.2210 H   0  0  0  0  0  0  0  0  0  0  0  0
  -25.5180  -15.2610   20.3750 N   0  0  0  0  0  0  0  0  0  0  0  0
  -24.7440  -15.9090   20.4680 H   0  0  0  0  0  0  0  0  0  0  0  0
  -26.3650  -15.7020   20.0390 H   0  0  0  0  0  0  0  0  0  0  0  0
  -29.4080  -24.2080   20.5150 C   0  0  0  0  0  3  0  0  0  0  0  0
  -28.2460  -25.1750   20.0750 C   0  0  0  0  0  3  0  0  0  0  0  0
  -28.4360  -26.6140   20.3110 O   0  0  0  0  0  0  0  0  0  0  0  0
  -24.6410  -31.9230   23.3220 C   0  0  0  0  0  0  0  0  0  0  0  0
  -27.3040  -27.4330   20.2430 C   0  0  0  0  0  0  0  0  0  0  0  0
  -23.4610  -30.5340   21.6580 C   0  0  0  0  0  3  0  0  0  0  0  0
  -24.9300  -29.0130   20.2300 C   0  0  0  0  0  0  0  0  0  0  0  0
  -25.9980  -30.8690   21.5090 C   0  0  0  0  0  2  0  0  0  0  0  0
  -26.0890  -29.5040   20.8450 C   0  0  0  0  0  0  0  0  0  0  0  0
  -27.2790  -28.7250   20.8440 C   0  0  0  0  0  3  0  0  0  0  0  0
  -26.1240  -26.9920   19.5980 C   0  0  0  0  0  3  0  0  0  0  0  0
  -24.9480  -27.7630   19.5980 C   0  0  0  0  0  3  0  0  0  0  0  0
  -23.6920  -29.8800   20.2710 C   0  0  0  0  0  2  0  0  0  0  0  0
  -24.7190  -31.1210   22.2220 N   0  0  0  0  0  0  0  0  0  0  0  0
  -23.5470  -32.2150   23.8250 O   0  0  0  0  0  0  0  0  0  0  0  0
  -22.7910  -29.5020   22.5960 C   0  0  0  0  0  0  0  0  0  0  0  0
  -21.4710  -29.3080   22.4380 N   0  0  0  0  0  0  0  0  0  0  0  0
  -23.4600  -28.8790   23.4260 O   0  0  0  0  0  0  0  0  0  0  0  0
  -20.9920  -29.8630   21.7420 H   0  0  0  0  0  0  0  0  0  0  0  0
  -18.0940  -28.0820   22.8570 C   0  0  0  0  0  0  0  0  0  0  0  0
  -20.6440  -28.3570   23.1840 C   0  0  0  0  0  3  0  0  0  0  0  0
  -20.7680  -26.9320   22.5990 C   0  0  0  0  0  2  0  0  0  0  0  0
  -19.6910  -26.6090   21.5600 C   0  0  0  0  0  2  0  0  0  0  0  0
  -18.2940  -26.7400   22.1750 C   0  0  0  0  0  2  0  0  0  0  0  0
  -19.1970  -28.8490   23.3170 C   0  0  0  0  0  0  0  0  0  0  0  0
  -18.9560  -30.1050   23.9140 C   0  0  0  0  0  3  0  0  0  0  0  0
  -17.6450  -30.5960   24.0570 C   0  0  0  0  0  3  0  0  0  0  0  0
  -16.5550  -29.8260   23.6140 C   0  0  0  0  0  3  0  0  0  0  0  0
  -16.7810  -28.5710   23.0190 C   0  0  0  0  0  3  0  0  0  0  0  0
  -25.9170  -32.5390   23.9770 C   0  0  0  0  0  3  0  0  0  0  0  0
  -25.6190  -33.9430   24.2880 N   0  0  0  0  0  0  0  0  0  0  0  0
  -25.9400  -34.9800   23.5030 C   0  0  0  0  0  0  0  0  0  0  0  0
  -26.5930  -34.8550   22.4640 O   0  0  0  0  0  0  0  0  0  0  0  0
  -25.0430  -34.1160   25.0990 H   0  0  0  0  0  0  0  0  0  0  0  0
  -24.1980  -36.7570   23.1540 C   0  0  0  0  0  1  0  0  0  0  0  0
  -25.4620  -36.3770   23.9400 C   0  0  0  0  0  3  0  0  0  0  0  0
  -27.6100  -37.2940   24.6980 C   0  0  0  0  0  1  0  0  0  0  0  0
  -26.4880  -37.4300   23.7720 N   0  0  0  0  0  0  0  0  0  0  0  0
  -26.0820  -38.3530   23.8990 H   0  0  0  0  0  0  0  0  0  0  0  0
  -26.3910  -31.7710   25.2730 C   0  0  1  0  0  0  0  0  0  0  0  0
  -25.2670  -31.5490   26.3110 C   0  0  0  0  0  1  0  0  0  0  0  0
  -26.9750  -30.3870   24.9070 C   0  0  0  0  0  1  0  0  0  0  0  0
  -27.5290  -32.5620   25.9620 C   0  0  0  0  0  1  0  0  0  0  0  0
  1  3  1  0
  1  2  1  0
  2  9  1  0
  4  7  1  0
 10  5  1  6
  5  8  1  0
  9 21  1  0
  9  6  1  0
 10  3  1  0
 10  4  1  0
 10  6  1  0
 11  8  1  0
 11 51  1  0
 11  7  1  0
 11 12  1  6
 13 21  1  0
 14 19  1  0
 15 16  1  0
 15 14  1  0
 17 16  1  0
 17 26  1  0
 17 18  1  0
 19 13  1  0
 19 18  1  0
 20 13  2  0
 21 22  1  0
 23 24  2  0
 24 43  1  0
 25 24  1  0
 25 28  1  0
 26 23  1  0
 26 27  1  0
 27 25  2  0
 28 29  1  0
 29 30  2  0
 31 34  1  0
 31 30  1  0
 32 31  2  0
 33 32  1  0
 33 28  2  0
 34 35  1  0
 35 36  1  0
 36 37  2  0
 38 37  1  0
 38 42  1  0
 39 38  2  0
 40 35  2  0
 40 39  1  0
 41 40  1  0
 43 44  1  0
 44 47  1  0
 44 46  1  0
 45 43  2  0
 48 49  1  0
 48 23  1  0
 50 48  1  0
 52 53  1  0
 52 51  2  0
 54 65  2  0
 55 53  1  0
 55 60  1  0
 56 64  1  0
 56 66  1  0
 57 63  1  0
 57 59  1  0
 58 64  1  0
 59 58  1  0
 60 59  2  0
 61 62  1  0
 61 55  2  0
 62 57  2  0
 63 56  1  0
 64 54  1  0
 66 68  2  0
 67 66  1  0
 69 67  1  0
 70 79  2  0
 70 75  1  0
 71 67  1  0
 71 75  1  0
 72 71  1  0
 73 74  1  0
 73 72  1  0
 74 70  1  0
 75 76  2  0
 76 77  1  0
 78 77  2  0
 79 78  1  0
 80 54  1  0
 80 81  1  0
 80 90  1  0
 81 84  1  0
 82 86  1  0
 82 81  1  0
 83 82  2  0
 86 85  1  0
 88 89  1  0
 88 86  1  0
 88 87  1  0
 90 93  1  1
 90 91  1  0
 92 90  1  0
M  ISO  4  13 100  21 100  52 101  53 101
M  END
>  <TORSDO>  (77) 
F 18

>  <SCORE>  (77) 
-14.510

>  <name>  (77) 
76

>  <ligand_id>  (77) 
76

>  <original_smiles>  (77) 
[H]c1c([H])c([H])c2c(c1[H])C([H])([H])C([H])([H])C([H])([H])C2([H])N([H])C(=O)C1([H])N(C(=O)C([H])(N([H])C(=O)C([H])(N([H])C([H])([H])[H])C([H])([H])[H])C(C([H])([H])[H])(C([H])([H])[H])C([H])([H])[H])C([H])([H])c2c([H])c(OC([H])([H])C([H])([H])[N+]3([H])C([H])([H])C([H])([H])C4(C([H])([H])C([H])([H])C([H])([H])C([H])(N([H])C(=O)N5C([H])([H])C([H])([H])C([H])([H])C([H])(n6nc(-c7c([H])c([H])c(Oc8c([H])c([H])c(F)c([H])c8F)c([H])c7[H])c(C(=O)N([H])[H])c6N([H])[H])C5([H])[H])C4([H])[H])C([H])([H])C3([H])[H])c([H])c([H])c2C1([H])[H]

>  <smiles>  (77) 
[H]c1c([H])c([H])c2c(c1[H])C([H])([H])C([H])([H])C([H])([H])C2([H])N([H])C(=O)C1([H])N(C(=O)C([H])(N([H])C(=O)C([H])(N([H])C([H])([H])[H])C([H])([H])[H])C(C([H])([H])[H])(C([H])([H])[H])C([H])([H])[H])C([H])([H])c2c([H])c(OC([H])([H])C([H])([H])[N+]3([H])C([H])([H])C([H])([H])C4(C([H])([H])C([H])([H])C([H])([H])C([H])(N([H])C(=O)N5C([H])([H])C([H])([H])C([H])([H])C([H])(n6nc(-c7c([H])c([H])c(Oc8c([H])c([H])c(F)c([H])c8F)c([H])c7[H])c(C(=O)N([H])[H])c6N([H])[H])C5([H])[H])C4([H])[H])C([H])([H])C3([H])[H])c([H])c([H])c2C1([H])[H]

$$$$
77:0:0
     RDKit          3D

 95103  0  0  1  0  0  0  0  0999 V2000
  -30.8870  -23.8700   17.8250 C   0  0  0  0  0  2  0  0  0  0  0  0
  -32.0270  -22.9320   18.2610 C   0  0  0  0  0  2  0  0  0  0  0  0
  -30.7450  -25.0680   18.7820 C   0  0  0  0  0  2  0  0  0  0  0  0
  -31.6950  -23.7520   20.6370 C   0  0  0  0  0  2  0  0  0  0  0  0
  -31.8800  -22.5000   19.7370 C   0  0  0  0  0  3  0  0  0  0  0  0
  -30.5740  -24.6390   20.2000 N   0  0  1  0  0  4  0  0  0  0  0  0
  -29.7430  -24.0610   20.2450 H   0  0  0  0  0  0  0  0  0  0  0  0
  -30.7570  -21.4640   19.9200 C   0  0  0  0  0  0  0  0  0  0  0  0
  -31.0920  -20.1660   19.8960 N   0  0  0  0  0  0  0  0  0  0  0  0
  -29.5960  -21.8500   20.0740 O   0  0  0  0  0  0  0  0  0  0  0  0
  -32.0670  -19.9260   19.7600 H   0  0  0  0  0  0  0  0  0  0  0  0
  -30.1230  -19.0710   19.9390 C   0  0  0  0  0  2  0  0  0  0  0  0
  -30.7010  -17.7560   20.5030 C   0  0  0  0  0  2  0  0  0  0  0  0
  -29.5770  -16.7010   20.5900 C   0  0  0  0  0  2  0  0  0  0  0  0
  -30.6370  -14.4600   20.5150 C   0  0  0  0  0  0  0  0  0  0  0  0
  -30.3640  -12.3400   19.3030 C   0  0  0  0  0  2  0  0  0  0  0  0
  -29.4170  -12.6040   18.1110 C   0  0  0  0  0  2  0  0  0  0  0  0
  -27.9380  -12.4690   18.5280 C   0  0  0  0  0  2  0  0  0  0  0  0
  -27.6110  -13.2540   19.8270 C   0  0  0  0  0  3  0  0  0  0  0  0
  -28.6610  -12.9500   20.9220 C   0  0  0  0  0  2  0  0  0  0  0  0
  -29.9990  -13.2670   20.3840 N   0  0  0  0  0  0  0  0  0  0  0  0
  -31.7060  -14.7300   19.9630 O   0  0  0  0  0  0  0  0  0  0  0  0
  -29.9180  -15.3910   21.1510 N   0  0  0  0  0  0  0  0  0  0  0  0
  -29.1790  -14.9930   21.7160 H   0  0  0  0  0  0  0  0  0  0  0  0
  -25.1990  -13.8600   20.5080 C   0  0  0  0  0  0  0  0  0  0  0  0
  -24.1300  -13.0850   20.8720 C   0  0  0  0  0  0  0  0  0  0  0  0
  -24.5960  -11.7360   20.8500 C   0  0  0  0  0  0  0  0  0  0  0  0
  -26.2500  -12.9820   20.2900 N   0  0  0  0  0  0  0  0  0  0  0  0
  -25.8870  -11.6990   20.5470 N   0  0  0  0  0  0  0  0  0  0  0  0
  -23.8750  -10.4700   21.0440 C   0  0  0  0  0  0  0  0  0  0  0  0
  -24.3100   -9.5090   21.9830 C   0  0  0  0  0  3  0  0  0  0  0  0
  -23.5920   -8.3070   22.1600 C   0  0  0  0  0  3  0  0  0  0  0  0
  -22.4250   -8.0570   21.4000 C   0  0  0  0  0  0  0  0  0  0  0  0
  -22.0110   -9.0070   20.4500 C   0  0  0  0  0  3  0  0  0  0  0  0
  -22.7280  -10.2000   20.2700 C   0  0  0  0  0  3  0  0  0  0  0  0
  -21.6780   -6.9070   21.4880 O   0  0  0  0  0  0  0  0  0  0  0  0
  -21.6340   -6.1630   22.6400 C   0  0  0  0  0  0  0  0  0  0  0  0
  -21.1940   -6.7110   23.8640 C   0  0  0  0  0  3  0  0  0  0  0  0
  -21.0960   -5.8940   25.0080 C   0  0  0  0  0  3  0  0  0  0  0  0
  -21.4300   -4.5290   24.9280 C   0  0  0  0  0  0  0  0  0  0  0  0
  -21.8640   -3.9790   23.7090 C   0  0  0  0  0  3  0  0  0  0  0  0
  -21.9610   -4.7950   22.5670 C   0  0  0  0  0  0  0  0  0  0  0  0
  -22.3590   -4.2550   21.3900 F   0  0  0  0  0  0  0  0  0  0  0  0
  -21.3300   -3.7420   26.0240 F   0  0  0  0  0  0  0  0  0  0  0  0
  -22.7280  -13.5560   21.1350 C   0  0  0  0  0  0  0  0  0  0  0  0
  -21.9980  -12.8590   21.9980 N   0  0  0  0  0  0  0  0  0  0  0  0
  -22.2870  -14.5770   20.6090 O   0  0  0  0  0  0  0  0  0  0  0  0
  -22.3610  -12.0300   22.4460 H   0  0  0  0  0  0  0  0  0  0  0  0
  -21.0570  -13.1550   22.2150 H   0  0  0  0  0  0  0  0  0  0  0  0
  -25.3610  -15.2320   20.3300 N   0  0  0  0  0  0  0  0  0  0  0  0
  -24.5990  -15.8930   20.4280 H   0  0  0  0  0  0  0  0  0  0  0  0
  -26.2210  -15.6650   20.0160 H   0  0  0  0  0  0  0  0  0  0  0  0
  -30.3770  -25.7920   21.1310 C   0  0  0  0  0  2  0  0  0  0  0  0
  -28.9130  -26.2630   21.2800 C   0  0  0  0  0  2  0  0  0  0  0  0
  -28.4100  -26.7720   20.0450 O   0  0  0  0  0  0  0  0  0  0  0  0
  -24.5730  -31.8930   23.2210 C   0  0  0  0  0  0  0  0  0  0  0  0
  -27.2400  -27.4870   20.1290 C   0  0  0  0  0  0  0  0  0  0  0  0
  -23.3670  -30.4840   21.5810 C   0  0  0  0  0  3  0  0  0  0  0  0
  -24.8270  -28.9540   20.1540 C   0  0  0  0  0  0  0  0  0  0  0  0
  -25.8870  -30.8570   21.3810 C   0  0  0  0  0  2  0  0  0  0  0  0
  -25.9780  -29.4840   20.7520 C   0  0  0  0  0  0  0  0  0  0  0  0
  -27.1840  -28.7540   20.7500 C   0  0  0  0  0  3  0  0  0  0  0  0
  -26.0790  -26.9660   19.5220 C   0  0  0  0  0  3  0  0  0  0  0  0
  -24.8700  -27.6880   19.5410 C   0  0  0  0  0  3  0  0  0  0  0  0
  -23.5800  -29.8070   20.2010 C   0  0  0  0  0  2  0  0  0  0  0  0
  -24.6280  -31.0890   22.1220 N   0  0  0  0  0  0  0  0  0  0  0  0
  -23.4880  -32.1840   23.7450 O   0  0  0  0  0  0  0  0  0  0  0  0
  -22.7260  -29.4570   22.5410 C   0  0  0  0  0  0  0  0  0  0  0  0
  -21.3990  -29.2760   22.4240 N   0  0  0  0  0  0  0  0  0  0  0  0
  -23.4150  -28.8270   23.3450 O   0  0  0  0  0  0  0  0  0  0  0  0
  -20.9030  -29.8410   21.7490 H   0  0  0  0  0  0  0  0  0  0  0  0
  -18.0280  -28.0860   22.9360 C   0  0  0  0  0  0  0  0  0  0  0  0
  -20.5880  -28.3320   23.1920 C   0  0  0  0  0  3  0  0  0  0  0  0
  -20.6810  -26.9060   22.5980 C   0  0  0  0  0  2  0  0  0  0  0  0
  -19.5700  -26.5990   21.5890 C   0  0  0  0  0  2  0  0  0  0  0  0
  -18.1940  -26.7430   22.2460 C   0  0  0  0  0  2  0  0  0  0  0  0
  -19.1530  -28.8390   23.3670 C   0  0  0  0  0  0  0  0  0  0  0  0
  -18.9440  -30.0980   23.9720 C   0  0  0  0  0  3  0  0  0  0  0  0
  -17.6430  -30.6030   24.1520 C   0  0  0  0  0  3  0  0  0  0  0  0
  -16.5320  -29.8470   23.7380 C   0  0  0  0  0  3  0  0  0  0  0  0
  -16.7250  -28.5910   23.1350 C   0  0  0  0  0  3  0  0  0  0  0  0
  -25.8620  -32.5130   23.8490 C   0  0  0  0  0  3  0  0  0  0  0  0
  -25.5630  -33.9120   24.1780 N   0  0  0  0  0  0  0  0  0  0  0  0
  -25.9070  -34.9600   23.4180 C   0  0  0  0  0  0  0  0  0  0  0  0
  -26.5850  -34.8500   22.3930 O   0  0  0  0  0  0  0  0  0  0  0  0
  -24.9570  -34.0720   24.9710 H   0  0  0  0  0  0  0  0  0  0  0  0
  -24.1960  -36.7620   23.0380 C   0  0  0  0  0  1  0  0  0  0  0  0
  -25.4220  -36.3510   23.8680 C   0  0  0  0  0  3  0  0  0  0  0  0
  -27.5490  -37.2190   24.7340 C   0  0  0  0  0  1  0  0  0  0  0  0
  -26.4630  -37.3960   23.7720 N   0  0  0  0  0  0  0  0  0  0  0  0
  -26.0610  -38.3180   23.9170 H   0  0  0  0  0  0  0  0  0  0  0  0
  -26.3790  -31.7390   25.1250 C   0  0  1  0  0  0  0  0  0  0  0  0
  -25.2860  -31.5060   26.1940 C   0  0  0  0  0  1  0  0  0  0  0  0
  -26.9600  -30.3610   24.7290 C   0  0  0  0  0  1  0  0  0  0  0  0
  -27.5320  -32.5300   25.7870 C   0  0  0  0  0  1  0  0  0  0  0  0
  1  2  1  0
  1  3  1  0
  2  5  1  0
  3  6  1  0
  5  8  1  0
  5  4  1  0
  6  7  1  6
  6  4  1  0
  6 53  1  0
  8 10  2  0
  9  8  1  0
  9 12  1  0
 11  9  1  0
 12 13  1  0
 13 14  1  0
 14 23  1  0
 15 23  1  0
 16 21  1  0
 17 18  1  0
 17 16  1  0
 19 18  1  0
 19 28  1  0
 19 20  1  0
 21 15  1  0
 21 20  1  0
 22 15  2  0
 23 24  1  0
 25 26  2  0
 26 45  1  0
 27 26  1  0
 27 30  1  0
 28 25  1  0
 28 29  1  0
 29 27  2  0
 30 31  1  0
 31 32  2  0
 33 36  1  0
 33 32  1  0
 34 33  2  0
 35 34  1  0
 35 30  2  0
 36 37  1  0
 37 38  1  0
 38 39  2  0
 40 39  1  0
 40 44  1  0
 41 40  2  0
 42 37  2  0
 42 41  1  0
 43 42  1  0
 45 46  1  0
 46 49  1  0
 46 48  1  0
 47 45  2  0
 50 51  1  0
 50 25  1  0
 52 50  1  0
 53 54  1  0
 55 57  1  0
 55 54  1  0
 56 67  2  0
 57 62  1  0
 58 66  1  0
 58 68  1  0
 59 65  1  0
 59 61  1  0
 60 66  1  0
 61 60  1  0
 62 61  2  0
 63 64  1  0
 63 57  2  0
 64 59  2  0
 65 58  1  0
 66 56  1  0
 68 70  2  0
 69 68  1  0
 71 69  1  0
 72 81  2  0
 72 77  1  0
 73 69  1  0
 73 77  1  0
 74 73  1  0
 75 76  1  0
 75 74  1  0
 76 72  1  0
 77 78  2  0
 78 79  1  0
 80 79  2  0
 81 80  1  0
 82 56  1  0
 82 83  1  0
 82 92  1  0
 83 86  1  0
 84 88  1  0
 84 83  1  0
 85 84  2  0
 88 87  1  0
 90 88  1  0
 90 91  1  0
 90 89  1  0
 92 95  1  1
 92 93  1  0
 94 92  1  0
M  ISO  4  15 100  23 100  54 101  55 101
M  END
>  <TORSDO>  (78) 
F 22

>  <SCORE>  (78) 
-13.039

>  <name>  (78) 
77

>  <ligand_id>  (78) 
77

>  <original_smiles>  (78) 
[H]c1c([H])c([H])c2c(c1[H])C([H])([H])C([H])([H])C([H])([H])C2([H])N([H])C(=O)C1([H])N(C(=O)C([H])(N([H])C(=O)C([H])(N([H])C([H])([H])[H])C([H])([H])[H])C(C([H])([H])[H])(C([H])([H])[H])C([H])([H])[H])C([H])([H])c2c([H])c(OC([H])([H])C([H])([H])[N+]3([H])C([H])([H])C([H])([H])C([H])([H])C([H])(C(=O)N([H])C([H])([H])C([H])([H])C([H])([H])N([H])C(=O)N4C([H])([H])C([H])([H])C([H])([H])C([H])(n5nc(-c6c([H])c([H])c(Oc7c([H])c([H])c(F)c([H])c7F)c([H])c6[H])c(C(=O)N([H])[H])c5N([H])[H])C4([H])[H])C3([H])[H])c([H])c([H])c2C1([H])[H]

>  <smiles>  (78) 
[H]c1c([H])c([H])c2c(c1[H])C([H])([H])C([H])([H])C([H])([H])C2([H])N([H])C(=O)C1([H])N(C(=O)C([H])(N([H])C(=O)C([H])(N([H])C([H])([H])[H])C([H])([H])[H])C(C([H])([H])[H])(C([H])([H])[H])C([H])([H])[H])C([H])([H])c2c([H])c(OC([H])([H])C([H])([H])[N+]3([H])C([H])([H])C([H])([H])C([H])([H])C([H])(C(=O)N([H])C([H])([H])C([H])([H])C([H])([H])N([H])C(=O)N4C([H])([H])C([H])([H])C([H])([H])C([H])(n5nc(-c6c([H])c([H])c(Oc7c([H])c([H])c(F)c([H])c7F)c([H])c6[H])c(C(=O)N([H])[H])c5N([H])[H])C4([H])[H])C3([H])[H])c([H])c([H])c2C1([H])[H]

$$$$
78:0:0
     RDKit          3D

 93102  0  0  1  0  0  0  0  0999 V2000
  -29.9920  -21.0340   17.9340 C   0  0  0  0  0  3  0  0  0  0  0  0
  -28.8480  -20.8630   20.0840 C   0  0  0  0  0  3  0  0  0  0  0  0
  -29.4510  -22.3130   17.7410 C   0  0  0  0  0  3  0  0  0  0  0  0
  -28.3160  -22.1490   19.9000 C   0  0  0  0  0  3  0  0  0  0  0  0
  -29.7100  -20.3160   19.1130 C   0  0  0  0  0  0  0  0  0  0  0  0
  -28.6370  -22.8820   18.7380 C   0  0  0  0  0  0  0  0  0  0  0  0
  -31.4170  -19.0160   20.4970 C   0  0  0  0  0  2  0  0  0  0  0  0
  -31.4310  -17.5890   21.0590 C   0  0  0  0  0  2  0  0  0  0  0  0
  -29.4840  -17.7930   19.6370 C   0  0  0  0  0  2  0  0  0  0  0  0
  -30.3970  -18.9900   19.3470 C   0  0  0  0  0  3  0  0  0  0  0  0
  -30.5350  -16.7930   20.1020 C   0  0  0  0  0  3  0  0  0  0  0  0
  -30.7380  -14.4160   20.4950 C   0  0  0  0  0  0  0  0  0  0  0  0
  -30.3640  -12.2820   19.3830 C   0  0  0  0  0  2  0  0  0  0  0  0
  -29.4450  -12.5350   18.1720 C   0  0  0  0  0  2  0  0  0  0  0  0
  -27.9670  -12.4220   18.5920 C   0  0  0  0  0  2  0  0  0  0  0  0
  -27.6340  -13.2590   19.8570 C   0  0  0  0  0  3  0  0  0  0  0  0
  -28.6820  -13.0420   20.9740 C   0  0  0  0  0  2  0  0  0  0  0  0
  -30.0150  -13.2790   20.4020 N   0  0  0  0  0  0  0  0  0  0  0  0
  -31.9200  -14.4920   20.1510 O   0  0  0  0  0  0  0  0  0  0  0  0
  -30.0260  -15.5390   20.6570 N   0  0  0  0  0  0  0  0  0  0  0  0
  -29.0450  -15.4620   20.8820 H   0  0  0  0  0  0  0  0  0  0  0  0
  -25.2360  -13.8720   20.5660 C   0  0  0  0  0  0  0  0  0  0  0  0
  -24.1630  -13.1010   20.9270 C   0  0  0  0  0  0  0  0  0  0  0  0
  -24.6200  -11.7480   20.8900 C   0  0  0  0  0  0  0  0  0  0  0  0
  -26.2780  -12.9890   20.3330 N   0  0  0  0  0  0  0  0  0  0  0  0
  -25.9110  -11.7070   20.5880 N   0  0  0  0  0  0  0  0  0  0  0  0
  -23.8880  -10.4870   21.0700 C   0  0  0  0  0  0  0  0  0  0  0  0
  -24.3090   -9.5180   22.0080 C   0  0  0  0  0  3  0  0  0  0  0  0
  -23.5810   -8.3210   22.1760 C   0  0  0  0  0  3  0  0  0  0  0  0
  -22.4170   -8.0850   21.4070 C   0  0  0  0  0  0  0  0  0  0  0  0
  -22.0150   -9.0430   20.4580 C   0  0  0  0  0  3  0  0  0  0  0  0
  -22.7450  -10.2310   20.2880 C   0  0  0  0  0  3  0  0  0  0  0  0
  -21.6600   -6.9400   21.4840 O   0  0  0  0  0  0  0  0  0  0  0  0
  -21.5870   -6.2010   22.6370 C   0  0  0  0  0  0  0  0  0  0  0  0
  -21.1160   -6.7510   23.8470 C   0  0  0  0  0  3  0  0  0  0  0  0
  -20.9920   -5.9380   24.9910 C   0  0  0  0  0  3  0  0  0  0  0  0
  -21.3320   -4.5730   24.9250 C   0  0  0  0  0  0  0  0  0  0  0  0
  -21.7980   -4.0210   23.7180 C   0  0  0  0  0  3  0  0  0  0  0  0
  -21.9220   -4.8330   22.5760 C   0  0  0  0  0  0  0  0  0  0  0  0
  -22.3510   -4.2920   21.4110 F   0  0  0  0  0  0  0  0  0  0  0  0
  -21.2080   -3.7880   26.0190 F   0  0  0  0  0  0  0  0  0  0  0  0
  -22.7650  -13.5820   21.1940 C   0  0  0  0  0  0  0  0  0  0  0  0
  -22.0260  -12.8780   22.0420 N   0  0  0  0  0  0  0  0  0  0  0  0
  -22.3350  -14.6170   20.6860 O   0  0  0  0  0  0  0  0  0  0  0  0
  -22.3840  -12.0420   22.4810 H   0  0  0  0  0  0  0  0  0  0  0  0
  -21.0860  -13.1810   22.2600 H   0  0  0  0  0  0  0  0  0  0  0  0
  -25.4050  -15.2430   20.3930 N   0  0  0  0  0  0  0  0  0  0  0  0
  -24.6400  -15.8990   20.5050 H   0  0  0  0  0  0  0  0  0  0  0  0
  -26.2530  -15.6780   20.0530 H   0  0  0  0  0  0  0  0  0  0  0  0
  -28.1710  -24.3080   18.5970 C   0  0  0  0  0  2  0  0  0  0  0  0
  -29.3590  -25.2810   18.5490 C   0  0  0  0  0  2  0  0  0  0  0  0
  -28.9280  -26.7270   18.7560 C   0  0  0  0  0  2  0  0  0  0  0  0
  -28.3950  -26.8420   20.0710 O   0  0  0  0  0  0  0  0  0  0  0  0
  -24.5650  -31.8940   23.2410 C   0  0  0  0  0  0  0  0  0  0  0  0
  -27.2040  -27.5090   20.1270 C   0  0  0  0  0  0  0  0  0  0  0  0
  -23.3520  -30.4940   21.6010 C   0  0  0  0  0  3  0  0  0  0  0  0
  -24.7990  -28.9660   20.1700 C   0  0  0  0  0  0  0  0  0  0  0  0
  -25.8720  -30.8640   21.3940 C   0  0  0  0  0  2  0  0  0  0  0  0
  -25.9540  -29.4960   20.7590 C   0  0  0  0  0  0  0  0  0  0  0  0
  -27.1570  -28.7680   20.7510 C   0  0  0  0  0  3  0  0  0  0  0  0
  -26.0340  -26.9710   19.5490 C   0  0  0  0  0  3  0  0  0  0  0  0
  -24.8290  -27.6950   19.5700 C   0  0  0  0  0  3  0  0  0  0  0  0
  -23.5560  -29.8200   20.2170 C   0  0  0  0  0  2  0  0  0  0  0  0
  -24.6160  -31.0940   22.1390 N   0  0  0  0  0  0  0  0  0  0  0  0
  -23.4830  -32.1820   23.7690 O   0  0  0  0  0  0  0  0  0  0  0  0
  -22.7070  -29.4650   22.5560 C   0  0  0  0  0  0  0  0  0  0  0  0
  -21.3830  -29.2810   22.4260 N   0  0  0  0  0  0  0  0  0  0  0  0
  -23.3940  -28.8350   23.3650 O   0  0  0  0  0  0  0  0  0  0  0  0
  -20.8920  -29.8400   21.7430 H   0  0  0  0  0  0  0  0  0  0  0  0
  -18.0050  -28.1080   22.9330 C   0  0  0  0  0  0  0  0  0  0  0  0
  -20.5670  -28.3410   23.1930 C   0  0  0  0  0  3  0  0  0  0  0  0
  -20.6540  -26.9160   22.5980 C   0  0  0  0  0  2  0  0  0  0  0  0
  -19.5430  -26.6140   21.5880 C   0  0  0  0  0  2  0  0  0  0  0  0
  -18.1670  -26.7640   22.2430 C   0  0  0  0  0  2  0  0  0  0  0  0
  -19.1340  -28.8540   23.3650 C   0  0  0  0  0  0  0  0  0  0  0  0
  -18.9300  -30.1140   23.9700 C   0  0  0  0  0  3  0  0  0  0  0  0
  -17.6320  -30.6270   24.1480 C   0  0  0  0  0  3  0  0  0  0  0  0
  -16.5180  -29.8770   23.7320 C   0  0  0  0  0  3  0  0  0  0  0  0
  -16.7060  -28.6180   23.1320 C   0  0  0  0  0  3  0  0  0  0  0  0
  -25.8570  -32.5100   23.8650 C   0  0  0  0  0  3  0  0  0  0  0  0
  -26.3710  -31.7330   25.1390 C   0  0  1  0  0  0  0  0  0  0  0  0
  -25.2760  -31.4930   26.2040 C   0  0  0  0  0  1  0  0  0  0  0  0
  -26.9510  -30.3550   24.7390 C   0  0  0  0  0  1  0  0  0  0  0  0
  -27.5240  -32.5220   25.8050 C   0  0  0  0  0  1  0  0  0  0  0  0
  -25.5600  -33.9080   24.1940 N   0  0  0  0  0  0  0  0  0  0  0  0
  -25.9030  -34.9560   23.4310 C   0  0  0  0  0  0  0  0  0  0  0  0
  -26.5780  -34.8440   22.4040 O   0  0  0  0  0  0  0  0  0  0  0  0
  -24.9610  -34.0700   24.9900 H   0  0  0  0  0  0  0  0  0  0  0  0
  -24.1990  -36.7610   23.0450 C   0  0  0  0  0  1  0  0  0  0  0  0
  -25.4210  -36.3470   23.8790 C   0  0  0  0  0  3  0  0  0  0  0  0
  -27.5460  -37.2100   24.7540 C   0  0  0  0  0  1  0  0  0  0  0  0
  -26.4670  -37.3900   23.7870 N   0  0  0  0  0  0  0  0  0  0  0  0
  -26.0650  -38.3140   23.9260 H   0  0  0  0  0  0  0  0  0  0  0  0
  1  5  1  0
  3  1  2  0
  3  6  1  0
  4  2  1  0
  5  2  2  0
  6  4  2  0
  7  8  1  0
  9 11  1  0
 10  5  1  0
 10  9  1  0
 10  7  1  0
 11 20  1  0
 11  8  1  0
 12 20  1  0
 13 18  1  0
 14 15  1  0
 14 13  1  0
 16 15  1  0
 16 25  1  0
 16 17  1  0
 18 12  1  0
 18 17  1  0
 19 12  2  0
 20 21  1  0
 22 23  2  0
 23 42  1  0
 24 23  1  0
 24 27  1  0
 25 22  1  0
 25 26  1  0
 26 24  2  0
 27 28  1  0
 28 29  2  0
 30 33  1  0
 30 29  1  0
 31 30  2  0
 32 31  1  0
 32 27  2  0
 33 34  1  0
 34 35  1  0
 35 36  2  0
 37 36  1  0
 37 41  1  0
 38 37  2  0
 39 34  2  0
 39 38  1  0
 40 39  1  0
 42 43  1  0
 43 46  1  0
 43 45  1  0
 44 42  2  0
 47 48  1  0
 47 22  1  0
 49 47  1  0
 50  6  1  0
 51 50  1  0
 51 52  1  0
 52 53  1  0
 53 55  1  0
 54 65  2  0
 55 60  1  0
 56 64  1  0
 56 66  1  0
 57 63  1  0
 57 59  1  0
 58 64  1  0
 59 58  1  0
 60 59  2  0
 61 62  1  0
 61 55  2  0
 62 57  2  0
 63 56  1  0
 64 54  1  0
 66 68  2  0
 67 66  1  0
 69 67  1  0
 70 79  2  0
 70 75  1  0
 71 67  1  0
 71 75  1  0
 72 71  1  0
 73 74  1  0
 73 72  1  0
 74 70  1  0
 75 76  2  0
 76 77  1  0
 78 77  2  0
 79 78  1  0
 80 54  1  0
 80 85  1  0
 80 81  1  0
 81 84  1  1
 81 82  1  0
 83 81  1  0
 85 88  1  0
 86 90  1  0
 86 85  1  0
 87 86  2  0
 90 89  1  0
 92 90  1  0
 92 93  1  0
 92 91  1  0
M  ISO  4  12 100  20 100  52 101  53 101
M  END
>  <TORSDO>  (79) 
F 20

>  <SCORE>  (79) 
-13.974

>  <name>  (79) 
78

>  <ligand_id>  (79) 
78

>  <original_smiles>  (79) 
[H]c1c([H])c([H])c2c(c1[H])C([H])([H])C([H])([H])C([H])([H])C2([H])N([H])C(=O)C1([H])N(C(=O)C([H])(N([H])C(=O)C([H])(N([H])C([H])([H])[H])C([H])([H])[H])C(C([H])([H])[H])(C([H])([H])[H])C([H])([H])[H])C([H])([H])c2c([H])c(OC([H])([H])C([H])([H])C([H])([H])c3c([H])c([H])c(C4([H])C([H])([H])C([H])([H])C([H])(N([H])C(=O)N5C([H])([H])C([H])([H])C([H])([H])C([H])(n6nc(-c7c([H])c([H])c(Oc8c([H])c([H])c(F)c([H])c8F)c([H])c7[H])c(C(=O)N([H])[H])c6N([H])[H])C5([H])[H])C4([H])[H])c([H])c3[H])c([H])c([H])c2C1([H])[H]

>  <smiles>  (79) 
[H]c1c([H])c([H])c2c(c1[H])C([H])([H])C([H])([H])C([H])([H])C2([H])N([H])C(=O)C1([H])N(C(=O)C([H])(N([H])C(=O)C([H])(N([H])C([H])([H])[H])C([H])([H])[H])C(C([H])([H])[H])(C([H])([H])[H])C([H])([H])[H])C([H])([H])c2c([H])c(OC([H])([H])C([H])([H])C([H])([H])c3c([H])c([H])c(C4([H])C([H])([H])C([H])([H])C([H])(N([H])C(=O)N5C([H])([H])C([H])([H])C([H])([H])C([H])(n6nc(-c7c([H])c([H])c(Oc8c([H])c([H])c(F)c([H])c8F)c([H])c7[H])c(C(=O)N([H])[H])c6N([H])[H])C5([H])[H])C4([H])[H])c([H])c3[H])c([H])c([H])c2C1([H])[H]

$$$$
79:0:0
     RDKit          3D

 95103  0  0  1  0  0  0  0  0999 V2000
  -30.5690  -21.8240   17.6330 C   0  0  0  0  0  2  0  0  0  0  0  0
  -32.8960  -20.2040   20.2040 C   0  0  0  0  0  3  0  0  0  0  0  0
  -32.1590  -19.0720   20.5950 C   0  0  0  0  0  3  0  0  0  0  0  0
  -32.3790  -21.0900   19.2460 C   0  0  0  0  0  3  0  0  0  0  0  0
  -30.3770  -19.7070   19.0610 C   0  0  0  0  0  3  0  0  0  0  0  0
  -30.8930  -18.7980   20.0220 C   0  0  0  0  0  0  0  0  0  0  0  0
  -31.1100  -20.8530   18.6770 C   0  0  0  0  0  0  0  0  0  0  0  0
  -30.1110  -17.5610   20.3580 C   0  0  0  0  0  0  0  0  0  0  0  0
  -29.0960  -17.2310   19.7340 O   0  0  0  0  0  0  0  0  0  0  0  0
  -30.5650  -16.6790   21.5420 C   0  0  0  0  0  2  0  0  0  0  0  0
  -30.7110  -14.4010   20.5900 C   0  0  0  0  0  0  0  0  0  0  0  0
  -30.3930  -12.3160   19.3230 C   0  0  0  0  0  2  0  0  0  0  0  0
  -29.4510  -12.5640   18.1300 C   0  0  0  0  0  2  0  0  0  0  0  0
  -27.9750  -12.4250   18.5540 C   0  0  0  0  0  2  0  0  0  0  0  0
  -27.6450  -13.2310   19.8390 C   0  0  0  0  0  3  0  0  0  0  0  0
  -28.6880  -12.9430   20.9410 C   0  0  0  0  0  2  0  0  0  0  0  0
  -30.0220  -13.2500   20.3960 N   0  0  0  0  0  0  0  0  0  0  0  0
  -31.7810  -14.6570   20.0310 O   0  0  0  0  0  0  0  0  0  0  0  0
  -30.1120  -15.2940   21.3830 N   0  0  0  0  0  0  0  0  0  0  0  0
  -29.2130  -15.0490   21.7690 H   0  0  0  0  0  0  0  0  0  0  0  0
  -25.2330  -13.8440   20.5120 C   0  0  0  0  0  0  0  0  0  0  0  0
  -24.1640  -13.0720   20.8760 C   0  0  0  0  0  0  0  0  0  0  0  0
  -24.6270  -11.7210   20.8590 C   0  0  0  0  0  0  0  0  0  0  0  0
  -26.2830  -12.9630   20.3000 N   0  0  0  0  0  0  0  0  0  0  0  0
  -25.9190  -11.6810   20.5630 N   0  0  0  0  0  0  0  0  0  0  0  0
  -23.9030  -10.4590   21.0500 C   0  0  0  0  0  0  0  0  0  0  0  0
  -24.3370   -9.4940   21.9860 C   0  0  0  0  0  3  0  0  0  0  0  0
  -23.6130   -8.2950   22.1650 C   0  0  0  0  0  3  0  0  0  0  0  0
  -22.4420   -8.0530   21.4070 C   0  0  0  0  0  0  0  0  0  0  0  0
  -22.0270   -9.0070   20.4620 C   0  0  0  0  0  3  0  0  0  0  0  0
  -22.7510  -10.1980   20.2810 C   0  0  0  0  0  3  0  0  0  0  0  0
  -21.6900   -6.9070   21.4950 O   0  0  0  0  0  0  0  0  0  0  0  0
  -21.6480   -6.1580   22.6450 C   0  0  0  0  0  0  0  0  0  0  0  0
  -21.2360   -6.7080   23.8770 C   0  0  0  0  0  3  0  0  0  0  0  0
  -21.1420   -5.8870   25.0190 C   0  0  0  0  0  3  0  0  0  0  0  0
  -21.4510   -4.5160   24.9290 C   0  0  0  0  0  0  0  0  0  0  0  0
  -21.8590   -3.9660   23.7010 C   0  0  0  0  0  3  0  0  0  0  0  0
  -21.9550   -4.7850   22.5610 C   0  0  0  0  0  0  0  0  0  0  0  0
  -22.3270   -4.2450   21.3760 F   0  0  0  0  0  0  0  0  0  0  0  0
  -21.3550   -3.7250   26.0240 F   0  0  0  0  0  0  0  0  0  0  0  0
  -22.7620  -13.5470   21.1330 C   0  0  0  0  0  0  0  0  0  0  0  0
  -22.0290  -12.8550   21.9970 N   0  0  0  0  0  0  0  0  0  0  0  0
  -22.3270  -14.5690   20.6050 O   0  0  0  0  0  0  0  0  0  0  0  0
  -22.3930  -12.0300   22.4500 H   0  0  0  0  0  0  0  0  0  0  0  0
  -21.0890  -13.1550   22.2120 H   0  0  0  0  0  0  0  0  0  0  0  0
  -25.4000  -15.2140   20.3270 N   0  0  0  0  0  0  0  0  0  0  0  0
  -24.6290  -15.8680   20.4230 H   0  0  0  0  0  0  0  0  0  0  0  0
  -26.2520  -15.6520   19.9990 H   0  0  0  0  0  0  0  0  0  0  0  0
  -29.6600  -22.9360   18.2000 C   0  0  0  0  0  2  0  0  0  0  0  0
  -30.3130  -23.6630   19.3110 N   0  0  0  0  0  4  0  0  0  0  0  0
  -31.3050  -23.6160   19.1470 H   0  0  0  0  0  0  0  0  0  0  0  0
  -30.1390  -23.1590   20.1680 H   0  0  0  0  0  0  0  0  0  0  0  0
  -29.9840  -25.1010   19.4670 C   0  0  0  0  0  2  0  0  0  0  0  0
  -28.4950  -25.4100   19.6990 C   0  0  0  0  0  2  0  0  0  0  0  0
  -28.4230  -26.7720   20.1230 O   0  0  0  0  0  0  0  0  0  0  0  0
  -24.5780  -31.8760   23.2270 C   0  0  0  0  0  0  0  0  0  0  0  0
  -27.2130  -27.4300   20.1400 C   0  0  0  0  0  0  0  0  0  0  0  0
  -23.3670  -30.4690   21.5940 C   0  0  0  0  0  3  0  0  0  0  0  0
  -24.8120  -28.9250   20.1740 C   0  0  0  0  0  0  0  0  0  0  0  0
  -25.8940  -30.8200   21.3940 C   0  0  0  0  0  2  0  0  0  0  0  0
  -25.9720  -29.4500   20.7560 C   0  0  0  0  0  0  0  0  0  0  0  0
  -27.1710  -28.7090   20.7370 C   0  0  0  0  0  3  0  0  0  0  0  0
  -26.0260  -26.9040   19.5750 C   0  0  0  0  0  3  0  0  0  0  0  0
  -24.8330  -27.6490   19.5860 C   0  0  0  0  0  3  0  0  0  0  0  0
  -23.5730  -29.7880   20.2160 C   0  0  0  0  0  2  0  0  0  0  0  0
  -24.6320  -31.0660   22.1320 N   0  0  0  0  0  0  0  0  0  0  0  0
  -23.4930  -32.1740   23.7450 O   0  0  0  0  0  0  0  0  0  0  0  0
  -22.7160  -29.4480   22.5540 C   0  0  0  0  0  0  0  0  0  0  0  0
  -21.3910  -29.2670   22.4250 N   0  0  0  0  0  0  0  0  0  0  0  0
  -23.3990  -28.8230   23.3700 O   0  0  0  0  0  0  0  0  0  0  0  0
  -20.9030  -29.8240   21.7380 H   0  0  0  0  0  0  0  0  0  0  0  0
  -18.0150  -28.0800   22.9130 C   0  0  0  0  0  0  0  0  0  0  0  0
  -20.5720  -28.3310   23.1930 C   0  0  0  0  0  3  0  0  0  0  0  0
  -20.6730  -26.8990   22.6170 C   0  0  0  0  0  2  0  0  0  0  0  0
  -19.5730  -26.5800   21.5990 C   0  0  0  0  0  2  0  0  0  0  0  0
  -18.1900  -26.7300   22.2400 C   0  0  0  0  0  2  0  0  0  0  0  0
  -19.1350  -28.8370   23.3470 C   0  0  0  0  0  0  0  0  0  0  0  0
  -18.9180  -30.1020   23.9360 C   0  0  0  0  0  3  0  0  0  0  0  0
  -17.6150  -30.6080   24.0970 C   0  0  0  0  0  3  0  0  0  0  0  0
  -16.5100  -29.8470   23.6800 C   0  0  0  0  0  3  0  0  0  0  0  0
  -16.7100  -28.5850   23.0940 C   0  0  0  0  0  3  0  0  0  0  0  0
  -25.8680  -32.4920   23.8540 C   0  0  0  0  0  3  0  0  0  0  0  0
  -25.5650  -33.8910   24.1900 N   0  0  0  0  0  0  0  0  0  0  0  0
  -25.8960  -34.9420   23.4280 C   0  0  0  0  0  0  0  0  0  0  0  0
  -26.5620  -34.8380   22.3940 O   0  0  0  0  0  0  0  0  0  0  0  0
  -24.9730  -34.0460   24.9920 H   0  0  0  0  0  0  0  0  0  0  0  0
  -24.1650  -36.7330   23.0810 C   0  0  0  0  0  1  0  0  0  0  0  0
  -25.4110  -36.3300   23.8880 C   0  0  0  0  0  3  0  0  0  0  0  0
  -27.5510  -37.2120   24.7070 C   0  0  0  0  0  1  0  0  0  0  0  0
  -26.4430  -37.3830   23.7690 N   0  0  0  0  0  0  0  0  0  0  0  0
  -26.0380  -38.3020   23.9230 H   0  0  0  0  0  0  0  0  0  0  0  0
  -26.3830  -31.7120   25.1260 C   0  0  1  0  0  0  0  0  0  0  0  0
  -25.2900  -31.4750   26.1930 C   0  0  0  0  0  1  0  0  0  0  0  0
  -26.9610  -30.3350   24.7260 C   0  0  0  0  0  1  0  0  0  0  0  0
  -27.5380  -32.4990   25.7920 C   0  0  0  0  0  1  0  0  0  0  0  0
  1 49  1  0
  1  7  1  0
  2  3  1  0
  4  2  2  0
  5  6  1  0
  6  8  1  0
  6  3  2  0
  7  5  2  0
  7  4  1  0
  8 10  1  0
  9  8  2  0
 11 19  1  0
 12 17  1  0
 13 14  1  0
 13 12  1  0
 15 14  1  0
 15 24  1  0
 15 16  1  0
 17 11  1  0
 17 16  1  0
 18 11  2  0
 19 10  1  0
 19 20  1  0
 21 22  2  0
 22 41  1  0
 23 22  1  0
 23 26  1  0
 24 21  1  0
 24 25  1  0
 25 23  2  0
 26 27  1  0
 27 28  2  0
 29 32  1  0
 29 28  1  0
 30 29  2  0
 31 30  1  0
 31 26  2  0
 32 33  1  0
 33 34  1  0
 34 35  2  0
 36 35  1  0
 36 40  1  0
 37 36  2  0
 38 33  2  0
 38 37  1  0
 39 38  1  0
 41 42  1  0
 42 45  1  0
 42 44  1  0
 43 41  2  0
 46 47  1  0
 46 21  1  0
 48 46  1  0
 49 50  1  0
 50 53  1  0
 50 52  1  0
 51 50  1  0
 53 54  1  0
 54 55  1  0
 55 57  1  0
 56 67  2  0
 57 62  1  0
 58 66  1  0
 58 68  1  0
 59 65  1  0
 59 61  1  0
 60 66  1  0
 61 60  1  0
 62 61  2  0
 63 64  1  0
 63 57  2  0
 64 59  2  0
 65 58  1  0
 66 56  1  0
 68 70  2  0
 69 68  1  0
 71 69  1  0
 72 81  2  0
 72 77  1  0
 73 69  1  0
 73 77  1  0
 74 73  1  0
 75 76  1  0
 75 74  1  0
 76 72  1  0
 77 78  2  0
 78 79  1  0
 80 79  2  0
 81 80  1  0
 82 56  1  0
 82 83  1  0
 82 92  1  0
 83 86  1  0
 84 88  1  0
 84 83  1  0
 85 84  2  0
 88 87  1  0
 90 88  1  0
 90 91  1  0
 90 89  1  0
 92 95  1  1
 92 93  1  0
 94 92  1  0
M  ISO  4  11 100  19 100  54 101  55 101
M  END
>  <TORSDO>  (80) 
F 23

>  <SCORE>  (80) 
-12.908

>  <name>  (80) 
79

>  <ligand_id>  (80) 
79

>  <original_smiles>  (80) 
[H]c1c([H])c([H])c2c(c1[H])C([H])([H])C([H])([H])C([H])([H])C2([H])N([H])C(=O)C1([H])N(C(=O)C([H])(N([H])C(=O)C([H])(N([H])C([H])([H])[H])C([H])([H])[H])C(C([H])([H])[H])(C([H])([H])[H])C([H])([H])[H])C([H])([H])c2c([H])c(OC([H])([H])C([H])([H])[N+]([H])([H])C([H])([H])C([H])([H])c3c([H])c([H])c([H])c(C(=O)C([H])([H])N([H])C(=O)N4C([H])([H])C([H])([H])C([H])([H])C([H])(n5nc(-c6c([H])c([H])c(Oc7c([H])c([H])c(F)c([H])c7F)c([H])c6[H])c(C(=O)N([H])[H])c5N([H])[H])C4([H])[H])c3[H])c([H])c([H])c2C1([H])[H]

>  <smiles>  (80) 
[H]c1c([H])c([H])c2c(c1[H])C([H])([H])C([H])([H])C([H])([H])C2([H])N([H])C(=O)C1([H])N(C(=O)C([H])(N([H])C(=O)C([H])(N([H])C([H])([H])[H])C([H])([H])[H])C(C([H])([H])[H])(C([H])([H])[H])C([H])([H])[H])C([H])([H])c2c([H])c(OC([H])([H])C([H])([H])[N+]([H])([H])C([H])([H])C([H])([H])c3c([H])c([H])c([H])c(C(=O)C([H])([H])N([H])C(=O)N4C([H])([H])C([H])([H])C([H])([H])C([H])(n5nc(-c6c([H])c([H])c(Oc7c([H])c([H])c(F)c([H])c7F)c([H])c6[H])c(C(=O)N([H])[H])c5N([H])[H])C4([H])[H])c3[H])c([H])c([H])c2C1([H])[H]

$$$$
80:0:0
     RDKit          3D

 94103  0  0  1  0  0  0  0  0999 V2000
  -30.9230  -16.6160   22.0710 C   0  0  0  0  0  2  0  0  0  0  0  0
  -27.7590  -18.5860   19.6350 C   0  0  0  0  0  2  0  0  0  0  0  0
  -31.8100  -17.7240   21.4430 C   0  0  0  0  0  2  0  0  0  0  0  0
  -27.8020  -20.0910   19.8510 C   0  0  0  0  0  2  0  0  0  0  0  0
  -29.3980  -16.6630   19.9870 C   0  0  0  0  0  2  0  0  0  0  0  0
  -29.9870  -15.7980   21.1260 C   0  0  0  0  0  3  0  0  0  0  0  0
  -28.9870  -18.0890   20.3940 C   0  0  0  0  0  3  0  0  0  0  0  0
  -30.0840  -19.1490   20.1380 C   0  0  0  0  0  3  0  0  0  0  0  0
  -31.1740  -19.1380   21.2490 C   0  0  0  0  0  3  0  0  0  0  0  0
  -29.2950  -20.4560   19.7550 C   0  0  0  0  0  3  0  0  0  0  0  0
  -32.3280  -20.1220   20.9470 C   0  0  0  0  0  1  0  0  0  0  0  0
  -30.6550  -14.5250   20.5190 C   0  0  0  0  0  0  0  0  0  0  0  0
  -30.3610  -12.3610   19.3600 C   0  0  0  0  0  2  0  0  0  0  0  0
  -29.4410  -12.5590   18.1360 C   0  0  0  0  0  2  0  0  0  0  0  0
  -27.9580  -12.4140   18.5330 C   0  0  0  0  0  2  0  0  0  0  0  0
  -27.5980  -13.2510   19.7870 C   0  0  0  0  0  3  0  0  0  0  0  0
  -28.6360  -13.0410   20.9140 C   0  0  0  0  0  2  0  0  0  0  0  0
  -29.9720  -13.3510   20.3800 N   0  0  0  0  0  0  0  0  0  0  0  0
  -31.7850  -14.6670   20.0450 O   0  0  0  0  0  0  0  0  0  0  0  0
  -25.1900  -13.8830   20.4370 C   0  0  0  0  0  0  0  0  0  0  0  0
  -24.1120  -13.1200   20.7980 C   0  0  0  0  0  0  0  0  0  0  0  0
  -24.5720  -11.7680   20.8030 C   0  0  0  0  0  0  0  0  0  0  0  0
  -26.2360  -12.9930   20.2440 N   0  0  0  0  0  0  0  0  0  0  0  0
  -25.8680  -11.7180   20.5220 N   0  0  0  0  0  0  0  0  0  0  0  0
  -23.8420  -10.5100   21.0020 C   0  0  0  0  0  0  0  0  0  0  0  0
  -24.2680   -9.5520   21.9490 C   0  0  0  0  0  3  0  0  0  0  0  0
  -23.5420   -8.3570   22.1350 C   0  0  0  0  0  3  0  0  0  0  0  0
  -22.3750   -8.1110   21.3730 C   0  0  0  0  0  0  0  0  0  0  0  0
  -21.9690   -9.0560   20.4140 C   0  0  0  0  0  3  0  0  0  0  0  0
  -22.6970  -10.2430   20.2270 C   0  0  0  0  0  3  0  0  0  0  0  0
  -21.6190   -6.9670   21.4670 O   0  0  0  0  0  0  0  0  0  0  0  0
  -21.5710   -6.2300   22.6230 C   0  0  0  0  0  0  0  0  0  0  0  0
  -21.1520   -6.7920   23.8470 C   0  0  0  0  0  3  0  0  0  0  0  0
  -21.0510   -5.9830   24.9960 C   0  0  0  0  0  3  0  0  0  0  0  0
  -21.3580   -4.6110   24.9200 C   0  0  0  0  0  0  0  0  0  0  0  0
  -21.7700   -4.0480   23.7000 C   0  0  0  0  0  3  0  0  0  0  0  0
  -21.8730   -4.8550   22.5530 C   0  0  0  0  0  0  0  0  0  0  0  0
  -22.2500   -4.3040   21.3750 F   0  0  0  0  0  0  0  0  0  0  0  0
  -21.2520   -3.8300   26.0210 F   0  0  0  0  0  0  0  0  0  0  0  0
  -22.7100  -13.6020   21.0330 C   0  0  0  0  0  0  0  0  0  0  0  0
  -21.9640  -12.9210   21.8960 N   0  0  0  0  0  0  0  0  0  0  0  0
  -22.2810  -14.6190   20.4860 O   0  0  0  0  0  0  0  0  0  0  0  0
  -22.3210  -12.0990   22.3590 H   0  0  0  0  0  0  0  0  0  0  0  0
  -21.0210  -13.2230   22.0930 H   0  0  0  0  0  0  0  0  0  0  0  0
  -25.3620  -15.2490   20.2370 N   0  0  0  0  0  0  0  0  0  0  0  0
  -24.5980  -15.9110   20.3180 H   0  0  0  0  0  0  0  0  0  0  0  0
  -26.2290  -15.6760   19.9380 H   0  0  0  0  0  0  0  0  0  0  0  0
  -29.6280  -21.7390   20.4430 N   0  0  0  0  0  4  0  0  0  0  0  0
  -30.6020  -21.9350   20.2780 H   0  0  0  0  0  0  0  0  0  0  0  0
  -29.4960  -21.6380   21.4360 H   0  0  0  0  0  0  0  0  0  0  0  0
  -28.8150  -22.8850   19.9490 C   0  0  0  0  0  2  0  0  0  0  0  0
  -29.2500  -24.3090   20.3930 C   0  0  0  0  0  2  0  0  0  0  0  0
  -28.1760  -25.3050   19.9050 C   0  0  0  0  0  2  0  0  0  0  0  0
  -28.3530  -26.7000   20.2090 O   0  0  0  0  0  0  0  0  0  0  0  0
  -24.5960  -31.9300   23.2690 C   0  0  0  0  0  0  0  0  0  0  0  0
  -27.1950  -27.4680   20.1620 C   0  0  0  0  0  0  0  0  0  0  0  0
  -23.3740  -30.5300   21.6420 C   0  0  0  0  0  3  0  0  0  0  0  0
  -24.8090  -29.0010   20.1950 C   0  0  0  0  0  0  0  0  0  0  0  0
  -25.9030  -30.8740   21.4290 C   0  0  0  0  0  2  0  0  0  0  0  0
  -25.9760  -29.5070   20.7800 C   0  0  0  0  0  0  0  0  0  0  0  0
  -27.1720  -28.7480   20.7640 C   0  0  0  0  0  3  0  0  0  0  0  0
  -26.0070  -26.9990   19.5450 C   0  0  0  0  0  3  0  0  0  0  0  0
  -24.8180  -27.7440   19.5760 C   0  0  0  0  0  3  0  0  0  0  0  0
  -23.5700  -29.8620   20.2570 C   0  0  0  0  0  2  0  0  0  0  0  0
  -24.6430  -31.1230   22.1730 N   0  0  0  0  0  0  0  0  0  0  0  0
  -23.5160  -32.2270   23.7960 O   0  0  0  0  0  0  0  0  0  0  0  0
  -22.7290  -29.5040   22.6030 C   0  0  0  0  0  0  0  0  0  0  0  0
  -21.4060  -29.3130   22.4730 N   0  0  0  0  0  0  0  0  0  0  0  0
  -23.4150  -28.8830   23.4190 O   0  0  0  0  0  0  0  0  0  0  0  0
  -20.9130  -29.8660   21.7870 H   0  0  0  0  0  0  0  0  0  0  0  0
  -18.0400  -28.0900   22.9510 C   0  0  0  0  0  0  0  0  0  0  0  0
  -20.5920  -28.3720   23.2430 C   0  0  0  0  0  3  0  0  0  0  0  0
  -20.7130  -26.9370   22.6790 C   0  0  0  0  0  2  0  0  0  0  0  0
  -19.6230  -26.5970   21.6570 C   0  0  0  0  0  2  0  0  0  0  0  0
  -18.2330  -26.7360   22.2870 C   0  0  0  0  0  2  0  0  0  0  0  0
  -19.1470  -28.8650   23.3840 C   0  0  0  0  0  0  0  0  0  0  0  0
  -18.9140  -30.1310   23.9620 C   0  0  0  0  0  3  0  0  0  0  0  0
  -17.6050  -30.6230   24.1160 C   0  0  0  0  0  3  0  0  0  0  0  0
  -16.5100  -29.8440   23.6990 C   0  0  0  0  0  3  0  0  0  0  0  0
  -16.7280  -28.5810   23.1210 C   0  0  0  0  0  3  0  0  0  0  0  0
  -25.8910  -32.5450   23.8870 C   0  0  0  0  0  3  0  0  0  0  0  0
  -26.4110  -31.7680   25.1580 C   0  0  1  0  0  0  0  0  0  0  0  0
  -25.3230  -31.5370   26.2320 C   0  0  0  0  0  1  0  0  0  0  0  0
  -26.9850  -30.3890   24.7590 C   0  0  0  0  0  1  0  0  0  0  0  0
  -27.5690  -32.5560   25.8150 C   0  0  0  0  0  1  0  0  0  0  0  0
  -25.5950  -33.9440   24.2210 N   0  0  0  0  0  0  0  0  0  0  0  0
  -25.9200  -34.9920   23.4510 C   0  0  0  0  0  0  0  0  0  0  0  0
  -26.5730  -34.8820   22.4090 O   0  0  0  0  0  0  0  0  0  0  0  0
  -25.0120  -34.1020   25.0290 H   0  0  0  0  0  0  0  0  0  0  0  0
  -24.1840  -36.7820   23.1200 C   0  0  0  0  0  1  0  0  0  0  0  0
  -25.4410  -36.3820   23.9120 C   0  0  0  0  0  3  0  0  0  0  0  0
  -27.5930  -37.2670   24.6960 C   0  0  0  0  0  1  0  0  0  0  0  0
  -26.4720  -37.4330   23.7740 N   0  0  0  0  0  0  0  0  0  0  0  0
  -26.0710  -38.3540   23.9280 H   0  0  0  0  0  0  0  0  0  0  0  0
  2  4  1  0
  3  1  1  0
  5  7  1  0
  5  6  1  0
  6 12  1  0
  6  1  1  0
  7  2  1  0
  8  7  1  0
  8  9  1  0
  9  3  1  0
 10  4  1  0
 10  8  1  0
 10 48  1  0
 11  9  1  0
 13 18  1  0
 14 15  1  0
 14 13  1  0
 15 16  1  0
 16 23  1  0
 16 17  1  0
 18 12  1  0
 18 17  1  0
 19 12  2  0
 20 21  2  0
 21 22  1  0
 21 40  1  0
 22 25  1  0
 23 20  1  0
 23 24  1  0
 24 22  2  0
 25 26  1  0
 26 27  2  0
 28 31  1  0
 28 27  1  0
 29 28  2  0
 30 29  1  0
 30 25  2  0
 31 32  1  0
 32 33  1  0
 33 34  2  0
 35 34  1  0
 35 39  1  0
 36 35  2  0
 37 32  2  0
 37 36  1  0
 38 37  1  0
 40 41  1  0
 41 44  1  0
 41 43  1  0
 42 40  2  0
 45 46  1  0
 45 20  1  0
 47 45  1  0
 48 50  1  0
 49 48  1  0
 51 52  1  0
 51 48  1  0
 53 54  1  0
 53 52  1  0
 55 66  2  0
 55 81  1  0
 56 54  1  0
 56 61  1  0
 57 65  1  0
 57 67  1  0
 58 64  1  0
 58 60  1  0
 59 65  1  0
 60 59  1  0
 61 60  2  0
 62 63  1  0
 62 56  2  0
 63 58  2  0
 64 57  1  0
 65 55  1  0
 67 69  2  0
 68 67  1  0
 68 72  1  0
 70 68  1  0
 71 80  2  0
 71 76  1  0
 72 76  1  0
 73 72  1  0
 74 75  1  0
 74 73  1  0
 75 71  1  0
 76 77  2  0
 77 78  1  0
 79 78  2  0
 80 79  1  0
 81 86  1  0
 81 82  1  0
 82 85  1  1
 82 83  1  0
 84 82  1  0
 86 89  1  0
 87 91  1  0
 87 86  1  0
 88 87  2  0
 90 91  1  0
 93 91  1  0
 93 94  1  0
 93 92  1  0
M  ISO  4   6 100  12 100  53 101  54 101
M  END
>  <TORSDO>  (81) 
F 20

>  <SCORE>  (81) 
-14.111

>  <name>  (81) 
80

>  <ligand_id>  (81) 
80

>  <original_smiles>  (81) 
[H]c1c([H])c([H])c2c(c1[H])C([H])([H])C([H])([H])C([H])([H])C2([H])N([H])C(=O)C1([H])N(C(=O)C([H])(N([H])C(=O)C([H])(N([H])C([H])([H])[H])C([H])([H])[H])C(C([H])([H])[H])(C([H])([H])[H])C([H])([H])[H])C([H])([H])c2c([H])c(OC([H])([H])C([H])([H])C([H])([H])[N+]([H])([H])C3([H])C([H])([H])C([H])([H])C4([H])C([H])([H])C([H])(C(=O)N5C([H])([H])C([H])([H])C([H])([H])C([H])(n6nc(-c7c([H])c([H])c(Oc8c([H])c([H])c(F)c([H])c8F)c([H])c7[H])c(C(=O)N([H])[H])c6N([H])[H])C5([H])[H])C([H])([H])C([H])([H])C([H])(C([H])([H])[H])C43[H])c([H])c([H])c2C1([H])[H]

>  <smiles>  (81) 
[H]c1c([H])c([H])c2c(c1[H])C([H])([H])C([H])([H])C([H])([H])C2([H])N([H])C(=O)C1([H])N(C(=O)C([H])(N([H])C(=O)C([H])(N([H])C([H])([H])[H])C([H])([H])[H])C(C([H])([H])[H])(C([H])([H])[H])C([H])([H])[H])C([H])([H])c2c([H])c(OC([H])([H])C([H])([H])C([H])([H])[N+]([H])([H])C3([H])C([H])([H])C([H])([H])C4([H])C([H])([H])C([H])(C(=O)N5C([H])([H])C([H])([H])C([H])([H])C([H])(n6nc(-c7c([H])c([H])c(Oc8c([H])c([H])c(F)c([H])c8F)c([H])c7[H])c(C(=O)N([H])[H])c6N([H])[H])C5([H])[H])C([H])([H])C([H])([H])C([H])(C([H])([H])[H])C43[H])c([H])c([H])c2C1([H])[H]

$$$$
81:0:0
     RDKit          3D

 95103  0  0  1  0  0  0  0  0999 V2000
  -28.2520  -21.0680   18.5180 C   0  0  0  0  0  3  0  0  0  0  0  0
  -28.4160  -22.4290   18.8210 C   0  0  0  0  0  3  0  0  0  0  0  0
  -28.9930  -20.0900   19.2020 C   0  0  0  0  0  3  0  0  0  0  0  0
  -30.0850  -21.8420   20.4930 C   0  0  0  0  0  3  0  0  0  0  0  0
  -29.3320  -22.8460   19.8120 C   0  0  0  0  0  0  0  0  0  0  0  0
  -29.9180  -20.4490   20.2130 C   0  0  0  0  0  0  0  0  0  0  0  0
  -30.7140  -24.9150   19.3140 C   0  0  0  0  0  1  0  0  0  0  0  0
  -29.5260  -24.3580   20.1110 C   0  0  0  0  0  3  0  0  0  0  0  0
  -28.2600  -25.2390   19.8500 C   0  0  0  0  0  2  0  0  0  0  0  0
  -28.3700  -26.6390   20.2100 O   0  0  0  0  0  0  0  0  0  0  0  0
  -24.5930  -31.8930   23.2590 C   0  0  0  0  0  0  0  0  0  0  0  0
  -27.2070  -27.4010   20.1790 C   0  0  0  0  0  0  0  0  0  0  0  0
  -23.3800  -30.4930   21.6260 C   0  0  0  0  0  3  0  0  0  0  0  0
  -24.8230  -28.9500   20.1980 C   0  0  0  0  0  0  0  0  0  0  0  0
  -25.9120  -30.8250   21.4330 C   0  0  0  0  0  2  0  0  0  0  0  0
  -25.9880  -29.4530   20.7910 C   0  0  0  0  0  0  0  0  0  0  0  0
  -27.1800  -28.6860   20.7790 C   0  0  0  0  0  3  0  0  0  0  0  0
  -26.0150  -26.9270   19.5760 C   0  0  0  0  0  3  0  0  0  0  0  0
  -24.8320  -27.6860   19.5910 C   0  0  0  0  0  3  0  0  0  0  0  0
  -23.5870  -29.8190   20.2460 C   0  0  0  0  0  2  0  0  0  0  0  0
  -24.6480  -31.0830   22.1650 N   0  0  0  0  0  0  0  0  0  0  0  0
  -23.5080  -32.1960   23.7740 O   0  0  0  0  0  0  0  0  0  0  0  0
  -22.7240  -29.4710   22.5840 C   0  0  0  0  0  0  0  0  0  0  0  0
  -21.4010  -29.2800   22.4440 N   0  0  0  0  0  0  0  0  0  0  0  0
  -23.4020  -28.8540   23.4100 O   0  0  0  0  0  0  0  0  0  0  0  0
  -20.9170  -29.8330   21.7530 H   0  0  0  0  0  0  0  0  0  0  0  0
  -18.0290  -28.0580   22.8980 C   0  0  0  0  0  0  0  0  0  0  0  0
  -20.5800  -28.3400   23.2080 C   0  0  0  0  0  3  0  0  0  0  0  0
  -20.7050  -26.9060   22.6420 C   0  0  0  0  0  2  0  0  0  0  0  0
  -19.6190  -26.5670   21.6150 C   0  0  0  0  0  2  0  0  0  0  0  0
  -18.2270  -26.7050   22.2370 C   0  0  0  0  0  2  0  0  0  0  0  0
  -19.1340  -28.8330   23.3410 C   0  0  0  0  0  0  0  0  0  0  0  0
  -18.8970  -30.0980   23.9190 C   0  0  0  0  0  3  0  0  0  0  0  0
  -17.5860  -30.5890   24.0610 C   0  0  0  0  0  3  0  0  0  0  0  0
  -16.4940  -29.8130   23.6330 C   0  0  0  0  0  3  0  0  0  0  0  0
  -16.7160  -28.5500   23.0590 C   0  0  0  0  0  3  0  0  0  0  0  0
  -25.8830  -32.5070   23.8910 C   0  0  0  0  0  3  0  0  0  0  0  0
  -25.5850  -33.9080   24.2210 N   0  0  0  0  0  0  0  0  0  0  0  0
  -25.9070  -34.9550   23.4500 C   0  0  0  0  0  0  0  0  0  0  0  0
  -26.5610  -34.8460   22.4100 O   0  0  0  0  0  0  0  0  0  0  0  0
  -25.0080  -34.0680   25.0330 H   0  0  0  0  0  0  0  0  0  0  0  0
  -24.1730  -36.7480   23.1180 C   0  0  0  0  0  1  0  0  0  0  0  0
  -25.4280  -36.3450   23.9110 C   0  0  0  0  0  3  0  0  0  0  0  0
  -27.5720  -37.2360   24.7070 C   0  0  0  0  0  1  0  0  0  0  0  0
  -26.4570  -37.3970   23.7780 N   0  0  0  0  0  0  0  0  0  0  0  0
  -26.0510  -38.3170   23.9260 H   0  0  0  0  0  0  0  0  0  0  0  0
  -26.3910  -31.7290   25.1650 C   0  0  1  0  0  0  0  0  0  0  0  0
  -25.2940  -31.4950   26.2270 C   0  0  0  0  0  1  0  0  0  0  0  0
  -26.9680  -30.3490   24.7690 C   0  0  0  0  0  1  0  0  0  0  0  0
  -27.5390  -32.5180   25.8380 C   0  0  0  0  0  1  0  0  0  0  0  0
  -30.7270  -19.3500   20.9640 C   0  0  0  0  0  3  0  0  0  0  0  0
  -30.7470  -19.6340   22.4130 N   0  0  0  0  0  4  0  0  0  0  0  0
  -29.8360  -19.5250   22.8210 H   0  0  0  0  0  0  0  0  0  0  0  0
  -31.0540  -20.5750   22.5710 H   0  0  0  0  0  0  0  0  0  0  0  0
  -31.4010  -19.0350   22.8860 H   0  0  0  0  0  0  0  0  0  0  0  0
  -30.2560  -17.8700   20.6680 C   0  0  0  0  0  2  0  0  0  0  0  0
  -30.7620  -16.7290   21.5990 C   0  0  0  0  0  2  0  0  0  0  0  0
  -30.8190  -14.4670   20.4650 C   0  0  0  0  0  0  0  0  0  0  0  0
  -30.4830  -12.3420   19.2540 C   0  0  0  0  0  2  0  0  0  0  0  0
  -29.5270  -12.5550   18.0630 C   0  0  0  0  0  2  0  0  0  0  0  0
  -28.0610  -12.3980   18.5090 C   0  0  0  0  0  2  0  0  0  0  0  0
  -27.7350  -13.2320   19.7740 C   0  0  0  0  0  3  0  0  0  0  0  0
  -28.7990  -12.9910   20.8700 C   0  0  0  0  0  2  0  0  0  0  0  0
  -30.1220  -13.3080   20.3010 N   0  0  0  0  0  0  0  0  0  0  0  0
  -31.8910  -14.6940   19.8960 O   0  0  0  0  0  0  0  0  0  0  0  0
  -30.2360  -15.3960   21.2420 N   0  0  0  0  0  0  0  0  0  0  0  0
  -29.3600  -15.1270   21.6610 H   0  0  0  0  0  0  0  0  0  0  0  0
  -25.3390  -13.8560   20.4840 C   0  0  0  0  0  0  0  0  0  0  0  0
  -24.2640  -13.0920   20.8530 C   0  0  0  0  0  0  0  0  0  0  0  0
  -24.7170  -11.7370   20.8180 C   0  0  0  0  0  0  0  0  0  0  0  0
  -26.3790  -12.9700   20.2500 N   0  0  0  0  0  0  0  0  0  0  0  0
  -26.0070  -11.6890   20.5040 N   0  0  0  0  0  0  0  0  0  0  0  0
  -23.9820  -10.4800   21.0120 C   0  0  0  0  0  0  0  0  0  0  0  0
  -24.4080   -9.5120   21.9500 C   0  0  0  0  0  3  0  0  0  0  0  0
  -23.6770   -8.3190   22.1330 C   0  0  0  0  0  3  0  0  0  0  0  0
  -22.5040   -8.0850   21.3750 C   0  0  0  0  0  0  0  0  0  0  0  0
  -22.0970   -9.0410   20.4280 C   0  0  0  0  0  3  0  0  0  0  0  0
  -22.8300  -10.2250   20.2460 C   0  0  0  0  0  3  0  0  0  0  0  0
  -21.7500   -6.9430   21.4620 O   0  0  0  0  0  0  0  0  0  0  0  0
  -21.6830   -6.2060   22.6200 C   0  0  0  0  0  0  0  0  0  0  0  0
  -21.2280   -6.7700   23.8330 C   0  0  0  0  0  3  0  0  0  0  0  0
  -21.1120   -5.9630   24.9820 C   0  0  0  0  0  3  0  0  0  0  0  0
  -21.4400   -4.5970   24.9200 C   0  0  0  0  0  0  0  0  0  0  0  0
  -21.8870   -4.0330   23.7130 C   0  0  0  0  0  3  0  0  0  0  0  0
  -22.0050   -4.8370   22.5640 C   0  0  0  0  0  0  0  0  0  0  0  0
  -22.4170   -4.2850   21.3970 F   0  0  0  0  0  0  0  0  0  0  0  0
  -21.3210   -3.8200   26.0230 F   0  0  0  0  0  0  0  0  0  0  0  0
  -22.8720  -13.5760   21.1390 C   0  0  0  0  0  0  0  0  0  0  0  0
  -22.1470  -12.8770   22.0060 N   0  0  0  0  0  0  0  0  0  0  0  0
  -22.4370  -14.6070   20.6300 O   0  0  0  0  0  0  0  0  0  0  0  0
  -22.5170  -12.0430   22.4350 H   0  0  0  0  0  0  0  0  0  0  0  0
  -21.2120  -13.1820   22.2420 H   0  0  0  0  0  0  0  0  0  0  0  0
  -25.5150  -15.2260   20.3140 N   0  0  0  0  0  0  0  0  0  0  0  0
  -24.7610  -15.8930   20.4350 H   0  0  0  0  0  0  0  0  0  0  0  0
  -26.3770  -15.6580   20.0060 H   0  0  0  0  0  0  0  0  0  0  0  0
  1  2  2  0
  1  3  1  0
  2  5  1  0
  3  6  2  0
  5  8  1  0
  5  4  2  0
  6  4  1  0
  6 51  1  0
  8  7  1  0
  9  8  1  0
  9 10  1  0
 11 22  2  0
 12 10  1  0
 12 17  1  0
 13 21  1  0
 13 23  1  0
 14 20  1  0
 14 16  1  0
 15 21  1  0
 16 15  1  0
 17 16  2  0
 18 19  1  0
 18 12  2  0
 19 14  2  0
 20 13  1  0
 21 11  1  0
 23 25  2  0
 24 23  1  0
 26 24  1  0
 27 36  2  0
 27 32  1  0
 28 24  1  0
 28 32  1  0
 29 28  1  0
 30 31  1  0
 30 29  1  0
 31 27  1  0
 32 33  2  0
 33 34  1  0
 35 34  2  0
 36 35  1  0
 37 11  1  0
 37 38  1  0
 37 47  1  0
 38 41  1  0
 39 43  1  0
 39 38  1  0
 40 39  2  0
 43 42  1  0
 45 43  1  0
 45 46  1  0
 45 44  1  0
 47 50  1  1
 47 48  1  0
 49 47  1  0
 51 56  1  0
 51 52  1  0
 52 54  1  0
 52 53  1  0
 52 55  1  0
 56 57  1  0
 58 66  1  0
 59 64  1  0
 60 61  1  0
 60 59  1  0
 62 61  1  0
 62 71  1  0
 62 63  1  0
 64 58  1  0
 64 63  1  0
 65 58  2  0
 66 57  1  0
 66 67  1  0
 68 69  2  0
 69 88  1  0
 70 69  1  0
 70 73  1  0
 71 68  1  0
 71 72  1  0
 72 70  2  0
 73 74  1  0
 74 75  2  0
 76 79  1  0
 76 75  1  0
 77 76  2  0
 78 77  1  0
 78 73  2  0
 79 80  1  0
 80 81  1  0
 81 82  2  0
 83 82  1  0
 83 87  1  0
 84 83  2  0
 85 80  2  0
 85 84  1  0
 86 85  1  0
 88 89  1  0
 89 92  1  0
 89 91  1  0
 90 88  2  0
 93 94  1  0
 93 68  1  0
 95 93  1  0
M  ISO  4   9 101  10 101  58 100  66 100
M  END
>  <TORSDO>  (82) 
F 22

>  <SCORE>  (82) 
-13.659

>  <name>  (82) 
81

>  <ligand_id>  (82) 
81

>  <original_smiles>  (82) 
[H]c1c([H])c([H])c2c(c1[H])C([H])([H])C([H])([H])C([H])([H])C2([H])N([H])C(=O)C1([H])N(C(=O)C([H])(N([H])C(=O)C([H])(N([H])C([H])([H])[H])C([H])([H])[H])C(C([H])([H])[H])(C([H])([H])[H])C([H])([H])[H])C([H])([H])c2c([H])c(OC([H])([H])C([H])(c3c([H])c([H])c([H])c(C([H])(C([H])([H])C([H])([H])N([H])C(=O)N4C([H])([H])C([H])([H])C([H])([H])C([H])(n5nc(-c6c([H])c([H])c(Oc7c([H])c([H])c(F)c([H])c7F)c([H])c6[H])c(C(=O)N([H])[H])c5N([H])[H])C4([H])[H])[N+]([H])([H])[H])c3[H])C([H])([H])[H])c([H])c([H])c2C1([H])[H]

>  <smiles>  (82) 
[H]c1c([H])c([H])c2c(c1[H])C([H])([H])C([H])([H])C([H])([H])C2([H])N([H])C(=O)C1([H])N(C(=O)C([H])(N([H])C(=O)C([H])(N([H])C([H])([H])[H])C([H])([H])[H])C(C([H])([H])[H])(C([H])([H])[H])C([H])([H])[H])C([H])([H])c2c([H])c(OC([H])([H])C([H])(c3c([H])c([H])c([H])c(C([H])(C([H])([H])C([H])([H])N([H])C(=O)N4C([H])([H])C([H])([H])C([H])([H])C([H])(n5nc(-c6c([H])c([H])c(Oc7c([H])c([H])c(F)c([H])c7F)c([H])c6[H])c(C(=O)N([H])[H])c5N([H])[H])C4([H])[H])[N+]([H])([H])[H])c3[H])C([H])([H])[H])c([H])c([H])c2C1([H])[H]

$$$$
82:0:0
     RDKit          3D

 92101  0  0  1  0  0  0  0  0999 V2000
  -30.5160  -22.6750   19.9090 C   0  0  0  0  0  3  0  0  0  0  0  0
  -31.4710  -21.6400   19.9260 C   0  0  0  0  0  3  0  0  0  0  0  0
  -28.8000  -21.0250   20.3570 C   0  0  0  0  0  3  0  0  0  0  0  0
  -29.1530  -22.4050   20.1160 C   0  0  0  0  0  0  0  0  0  0  0  0
  -29.7530  -19.9360   20.3790 C   0  0  0  0  0  0  0  0  0  0  0  0
  -31.1130  -20.2850   20.1430 C   0  0  0  0  0  0  0  0  0  0  0  0
  -27.8960  -24.5850   21.0050 C   0  0  0  0  0  2  0  0  0  0  0  0
  -28.1160  -23.5700   20.0040 C   0  0  0  0  0  3  0  0  0  0  0  0
  -28.3780  -25.1160   19.6230 C   0  0  0  0  0  3  0  0  0  0  0  0
  -28.3460  -26.4990   20.1870 O   0  0  0  0  0  0  0  0  0  0  0  0
  -24.6080  -31.8700   23.2420 C   0  0  0  0  0  0  0  0  0  0  0  0
  -27.2020  -27.3220   20.1430 C   0  0  0  0  0  0  0  0  0  0  0  0
  -23.3970  -30.4760   21.6090 C   0  0  0  0  0  3  0  0  0  0  0  0
  -24.8340  -28.9350   20.1630 C   0  0  0  0  0  0  0  0  0  0  0  0
  -25.9330  -30.7970   21.4070 C   0  0  0  0  0  2  0  0  0  0  0  0
  -26.0070  -29.4210   20.7550 C   0  0  0  0  0  0  0  0  0  0  0  0
  -27.1900  -28.6240   20.7360 C   0  0  0  0  0  3  0  0  0  0  0  0
  -25.9960  -26.8860   19.5450 C   0  0  0  0  0  3  0  0  0  0  0  0
  -24.8290  -27.6730   19.5500 C   0  0  0  0  0  3  0  0  0  0  0  0
  -23.5980  -29.8100   20.2230 C   0  0  0  0  0  2  0  0  0  0  0  0
  -24.6680  -31.0600   22.1470 N   0  0  0  0  0  0  0  0  0  0  0  0
  -23.5240  -32.1700   23.7570 O   0  0  0  0  0  0  0  0  0  0  0  0
  -22.7390  -29.4530   22.5650 C   0  0  0  0  0  0  0  0  0  0  0  0
  -21.4100  -29.2800   22.4440 N   0  0  0  0  0  0  0  0  0  0  0  0
  -23.4200  -28.8180   23.3730 O   0  0  0  0  0  0  0  0  0  0  0  0
  -20.9200  -29.8410   21.7620 H   0  0  0  0  0  0  0  0  0  0  0  0
  -18.0330  -28.0840   22.9420 C   0  0  0  0  0  0  0  0  0  0  0  0
  -20.5930  -28.3370   23.2100 C   0  0  0  0  0  3  0  0  0  0  0  0
  -20.6910  -26.9100   22.6230 C   0  0  0  0  0  2  0  0  0  0  0  0
  -19.5860  -26.5970   21.6090 C   0  0  0  0  0  2  0  0  0  0  0  0
  -18.2060  -26.7400   22.2560 C   0  0  0  0  0  2  0  0  0  0  0  0
  -19.1540  -28.8410   23.3760 C   0  0  0  0  0  0  0  0  0  0  0  0
  -18.9380  -30.1010   23.9760 C   0  0  0  0  0  3  0  0  0  0  0  0
  -17.6330  -30.6020   24.1480 C   0  0  0  0  0  3  0  0  0  0  0  0
  -16.5270  -29.8440   23.7310 C   0  0  0  0  0  3  0  0  0  0  0  0
  -16.7290  -28.5850   23.1340 C   0  0  0  0  0  3  0  0  0  0  0  0
  -25.8950  -32.4860   23.8750 C   0  0  0  0  0  3  0  0  0  0  0  0
  -26.4050  -31.7050   25.1460 C   0  0  1  0  0  0  0  0  0  0  0  0
  -25.3070  -31.4650   26.2080 C   0  0  0  0  0  1  0  0  0  0  0  0
  -26.9800  -30.3270   24.7420 C   0  0  0  0  0  1  0  0  0  0  0  0
  -27.5620  -32.4860   25.8140 C   0  0  0  0  0  1  0  0  0  0  0  0
  -25.5940  -33.8840   24.2170 N   0  0  0  0  0  0  0  0  0  0  0  0
  -25.9120  -34.9380   23.4530 C   0  0  0  0  0  0  0  0  0  0  0  0
  -26.5640  -34.8340   22.4090 O   0  0  0  0  0  0  0  0  0  0  0  0
  -25.0140  -34.0380   25.0280 H   0  0  0  0  0  0  0  0  0  0  0  0
  -24.1680  -36.7230   23.1410 C   0  0  0  0  0  1  0  0  0  0  0  0
  -25.4330  -36.3270   23.9190 C   0  0  0  0  0  3  0  0  0  0  0  0
  -27.5890  -37.2190   24.6850 C   0  0  0  0  0  1  0  0  0  0  0  0
  -26.4600  -37.3820   23.7730 N   0  0  0  0  0  0  0  0  0  0  0  0
  -26.0560  -38.3010   23.9270 H   0  0  0  0  0  0  0  0  0  0  0  0
  -33.1950  -19.4690   19.2800 C   0  0  0  0  0  1  0  0  0  0  0  0
  -32.0740  -19.3010   20.1420 O   0  0  0  0  0  0  0  0  0  0  0  0
  -29.2840  -18.4330   20.6140 C   0  0  0  0  0  3  0  0  0  0  0  0
  -30.3260  -17.2110   20.5690 C   0  0  0  0  0  3  0  0  0  0  0  0
  -30.5980  -14.6630   20.4190 C   0  0  0  0  0  0  0  0  0  0  0  0
  -30.3620  -12.4320   19.3540 C   0  0  0  0  0  2  0  0  0  0  0  0
  -29.4130  -12.5510   18.1420 C   0  0  0  0  0  2  0  0  0  0  0  0
  -27.9450  -12.3960   18.5800 C   0  0  0  0  0  2  0  0  0  0  0  0
  -27.5920  -13.2620   19.8160 C   0  0  0  0  0  3  0  0  0  0  0  0
  -28.6520  -13.1280   20.9300 C   0  0  0  0  0  2  0  0  0  0  0  0
  -29.9530  -13.4580   20.3370 N   0  0  0  0  0  0  0  0  0  0  0  0
  -31.7750  -14.7750   20.0650 O   0  0  0  0  0  0  0  0  0  0  0  0
  -29.8480  -15.7820   20.6940 N   0  0  0  0  0  0  0  0  0  0  0  0
  -28.8760  -15.6350   20.9260 H   0  0  0  0  0  0  0  0  0  0  0  0
  -25.2000  -13.8530   20.5400 C   0  0  0  0  0  0  0  0  0  0  0  0
  -24.1380  -13.0770   20.9100 C   0  0  0  0  0  0  0  0  0  0  0  0
  -24.6040  -11.7270   20.8800 C   0  0  0  0  0  0  0  0  0  0  0  0
  -26.2470  -12.9770   20.3060 N   0  0  0  0  0  0  0  0  0  0  0  0
  -25.8930  -11.6930   20.5720 N   0  0  0  0  0  0  0  0  0  0  0  0
  -23.8830  -10.4620   21.0700 C   0  0  0  0  0  0  0  0  0  0  0  0
  -24.3280   -9.4890   21.9930 C   0  0  0  0  0  3  0  0  0  0  0  0
  -23.6050   -8.2900   22.1720 C   0  0  0  0  0  3  0  0  0  0  0  0
  -22.4230   -8.0560   21.4300 C   0  0  0  0  0  0  0  0  0  0  0  0
  -22.0000   -9.0170   20.4940 C   0  0  0  0  0  3  0  0  0  0  0  0
  -22.7240  -10.2090   20.3130 C   0  0  0  0  0  3  0  0  0  0  0  0
  -21.6730   -6.9100   21.5160 O   0  0  0  0  0  0  0  0  0  0  0  0
  -21.6450   -6.1530   22.6600 C   0  0  0  0  0  0  0  0  0  0  0  0
  -21.2480   -6.6950   23.9020 C   0  0  0  0  0  3  0  0  0  0  0  0
  -21.1700   -5.8650   25.0390 C   0  0  0  0  0  3  0  0  0  0  0  0
  -21.4770   -4.4950   24.9350 C   0  0  0  0  0  0  0  0  0  0  0  0
  -21.8670   -3.9530   23.6970 C   0  0  0  0  0  3  0  0  0  0  0  0
  -21.9480   -4.7800   22.5620 C   0  0  0  0  0  0  0  0  0  0  0  0
  -22.3040   -4.2470   21.3690 F   0  0  0  0  0  0  0  0  0  0  0  0
  -21.3950   -3.6970   26.0260 F   0  0  0  0  0  0  0  0  0  0  0  0
  -22.7390  -13.5480   21.1830 C   0  0  0  0  0  0  0  0  0  0  0  0
  -22.0190  -12.8520   22.0530 N   0  0  0  0  0  0  0  0  0  0  0  0
  -22.2970  -14.5720   20.6610 O   0  0  0  0  0  0  0  0  0  0  0  0
  -22.3940  -12.0230   22.4920 H   0  0  0  0  0  0  0  0  0  0  0  0
  -21.0810  -13.1470   22.2840 H   0  0  0  0  0  0  0  0  0  0  0  0
  -25.3580  -15.2240   20.3600 N   0  0  0  0  0  0  0  0  0  0  0  0
  -24.5810  -15.8690   20.4590 H   0  0  0  0  0  0  0  0  0  0  0  0
  -26.1860  -15.6660   19.9820 H   0  0  0  0  0  0  0  0  0  0  0  0
  1  2  2  0
  1  4  1  0
  2  6  1  0
  3  5  1  0
  4  3  2  0
  5 53  1  0
  6  5  2  0
  8  4  1  0
  8  7  1  0
  9  8  1  0
  9 10  1  0
  9  7  1  0
 11 22  2  0
 12 10  1  0
 12 17  1  0
 13 21  1  0
 13 23  1  0
 14 20  1  0
 14 16  1  0
 15 21  1  0
 16 15  1  0
 17 16  2  0
 18 19  1  0
 18 12  2  0
 19 14  2  0
 20 13  1  0
 21 11  1  0
 23 25  2  0
 24 23  1  0
 26 24  1  0
 27 36  2  0
 27 32  1  0
 28 24  1  0
 28 32  1  0
 29 28  1  0
 30 31  1  0
 30 29  1  0
 31 27  1  0
 32 33  2  0
 33 34  1  0
 35 34  2  0
 36 35  1  0
 37 11  1  0
 37 42  1  0
 37 38  1  0
 38 41  1  1
 38 39  1  0
 40 38  1  0
 42 45  1  0
 43 47  1  0
 43 42  1  0
 44 43  2  0
 47 46  1  0
 49 47  1  0
 49 50  1  0
 49 48  1  0
 51 52  1  0
 52  6  1  0
 54 53  2  0
 54 63  1  0
 55 63  1  0
 56 61  1  0
 57 58  1  0
 57 56  1  0
 59 58  1  0
 59 68  1  0
 59 60  1  0
 61 55  1  0
 61 60  1  0
 62 55  2  0
 63 64  1  0
 65 66  2  0
 66 85  1  0
 67 66  1  0
 67 70  1  0
 68 65  1  0
 68 69  1  0
 69 67  2  0
 70 71  1  0
 71 72  2  0
 73 76  1  0
 73 72  1  0
 74 73  2  0
 75 74  1  0
 75 70  2  0
 76 77  1  0
 77 78  1  0
 78 79  2  0
 80 79  1  0
 80 84  1  0
 81 80  2  0
 82 77  2  0
 82 81  1  0
 83 82  1  0
 85 86  1  0
 86 89  1  0
 86 88  1  0
 87 85  2  0
 90 91  1  0
 90 65  1  0
 92 90  1  0
M  ISO  4   9 101  10 101  55 100  63 100
M  END
>  <TORSDO>  (83) 
F 20

>  <SCORE>  (83) 
-13.910

>  <name>  (83) 
82

>  <ligand_id>  (83) 
82

>  <original_smiles>  (83) 
[H]c1c([H])c([H])c2c(c1[H])C([H])([H])C([H])([H])C([H])([H])C2([H])N([H])C(=O)C1([H])N(C(=O)C([H])(N([H])C(=O)C([H])(N([H])C([H])([H])[H])C([H])([H])[H])C(C([H])([H])[H])(C([H])([H])[H])C([H])([H])[H])C([H])([H])c2c([H])c(OC3([H])C([H])([H])C3([H])c3c([H])c([H])c(OC([H])([H])[H])c(C([H])([H])C([H])([H])N([H])C(=O)N4C([H])([H])C([H])([H])C([H])([H])C([H])(n5nc(-c6c([H])c([H])c(Oc7c([H])c([H])c(F)c([H])c7F)c([H])c6[H])c(C(=O)N([H])[H])c5N([H])[H])C4([H])[H])c3[H])c([H])c([H])c2C1([H])[H]

>  <smiles>  (83) 
[H]c1c([H])c([H])c2c(c1[H])C([H])([H])C([H])([H])C([H])([H])C2([H])N([H])C(=O)C1([H])N(C(=O)C([H])(N([H])C(=O)C([H])(N([H])C([H])([H])[H])C([H])([H])[H])C(C([H])([H])[H])(C([H])([H])[H])C([H])([H])[H])C([H])([H])c2c([H])c(OC3([H])C([H])([H])C3([H])c3c([H])c([H])c(OC([H])([H])[H])c(C([H])([H])C([H])([H])N([H])C(=O)N4C([H])([H])C([H])([H])C([H])([H])C([H])(n5nc(-c6c([H])c([H])c(Oc7c([H])c([H])c(F)c([H])c7F)c([H])c6[H])c(C(=O)N([H])[H])c5N([H])[H])C4([H])[H])c3[H])c([H])c([H])c2C1([H])[H]

$$$$
83:0:0
     RDKit          3D

 92 99  0  0  1  0  0  0  0  0999 V2000
  -29.5970  -20.6390   21.8420 C   0  0  0  0  0  0  0  0  0  0  0  0
  -29.9550  -21.1470   23.0220 N   0  0  0  0  0  4  0  0  0  0  0  0
  -29.8910  -19.3220   21.6730 N   0  0  0  0  0  0  0  0  0  0  0  0
  -28.9770  -21.4570   20.9480 N   0  0  0  0  0  0  0  0  0  0  0  0
  -29.8260  -22.1250   23.2340 H   0  0  0  0  0  0  0  0  0  0  0  0
  -30.3850  -20.5860   23.7440 H   0  0  0  0  0  0  0  0  0  0  0  0
  -30.3740  -18.8990   22.4510 H   0  0  0  0  0  0  0  0  0  0  0  0
  -28.7640  -21.0830   20.0330 H   0  0  0  0  0  0  0  0  0  0  0  0
  -29.5730  -18.2950   20.6440 C   0  0  0  0  0  2  0  0  0  0  0  0
  -30.5710  -17.0820   20.7210 C   0  0  0  0  0  2  0  0  0  0  0  0
  -30.6780  -14.6110   20.2990 C   0  0  0  0  0  0  0  0  0  0  0  0
  -30.3420  -12.4330   19.1880 C   0  0  0  0  0  2  0  0  0  0  0  0
  -29.3860  -12.6230   17.9920 C   0  0  0  0  0  2  0  0  0  0  0  0
  -27.9210  -12.4870   18.4470 C   0  0  0  0  0  2  0  0  0  0  0  0
  -27.6020  -13.3310   19.7110 C   0  0  0  0  0  3  0  0  0  0  0  0
  -28.6780  -13.1470   20.8050 C   0  0  0  0  0  2  0  0  0  0  0  0
  -29.9840  -13.4420   20.2000 N   0  0  0  0  0  0  0  0  0  0  0  0
  -31.8300  -14.7250   19.8760 O   0  0  0  0  0  0  0  0  0  0  0  0
  -29.9960  -15.7110   20.7020 N   0  0  0  0  0  0  0  0  0  0  0  0
  -29.0430  -15.5900   21.0120 H   0  0  0  0  0  0  0  0  0  0  0  0
  -25.2190  -13.9300   20.4620 C   0  0  0  0  0  0  0  0  0  0  0  0
  -24.1560  -13.1560   20.8450 C   0  0  0  0  0  0  0  0  0  0  0  0
  -24.6200  -11.8060   20.8100 C   0  0  0  0  0  0  0  0  0  0  0  0
  -26.2600  -13.0500   20.2150 N   0  0  0  0  0  0  0  0  0  0  0  0
  -25.9060  -11.7670   20.4850 N   0  0  0  0  0  0  0  0  0  0  0  0
  -23.8980  -10.5420   21.0090 C   0  0  0  0  0  0  0  0  0  0  0  0
  -24.3470   -9.5730   21.9350 C   0  0  0  0  0  3  0  0  0  0  0  0
  -23.6250   -8.3750   22.1230 C   0  0  0  0  0  3  0  0  0  0  0  0
  -22.4400   -8.1360   21.3870 C   0  0  0  0  0  0  0  0  0  0  0  0
  -22.0100   -9.0930   20.4510 C   0  0  0  0  0  3  0  0  0  0  0  0
  -22.7330  -10.2840   20.2600 C   0  0  0  0  0  3  0  0  0  0  0  0
  -21.6880   -6.9910   21.4850 O   0  0  0  0  0  0  0  0  0  0  0  0
  -21.6610   -6.2440   22.6360 C   0  0  0  0  0  0  0  0  0  0  0  0
  -21.2600   -6.7950   23.8730 C   0  0  0  0  0  3  0  0  0  0  0  0
  -21.1810   -5.9750   25.0170 C   0  0  0  0  0  3  0  0  0  0  0  0
  -21.4930   -4.6050   24.9240 C   0  0  0  0  0  0  0  0  0  0  0  0
  -21.8880   -4.0540   23.6920 C   0  0  0  0  0  3  0  0  0  0  0  0
  -21.9690   -4.8720   22.5520 C   0  0  0  0  0  0  0  0  0  0  0  0
  -22.3290   -4.3320   21.3630 F   0  0  0  0  0  0  0  0  0  0  0  0
  -21.4090   -3.8150   26.0200 F   0  0  0  0  0  0  0  0  0  0  0  0
  -22.7620  -13.6310   21.1370 C   0  0  0  0  0  0  0  0  0  0  0  0
  -22.0480  -12.9330   22.0120 N   0  0  0  0  0  0  0  0  0  0  0  0
  -22.3160  -14.6560   20.6230 O   0  0  0  0  0  0  0  0  0  0  0  0
  -22.4230  -12.1010   22.4440 H   0  0  0  0  0  0  0  0  0  0  0  0
  -21.1150  -13.2310   22.2540 H   0  0  0  0  0  0  0  0  0  0  0  0
  -25.3830  -15.3010   20.2780 N   0  0  0  0  0  0  0  0  0  0  0  0
  -24.6180  -15.9580   20.3880 H   0  0  0  0  0  0  0  0  0  0  0  0
  -26.2230  -15.7270   19.9080 H   0  0  0  0  0  0  0  0  0  0  0  0
  -28.3710  -22.8020   21.2660 C   0  0  0  0  0  2  0  0  0  0  0  0
  -28.8190  -24.0620   20.4430 C   0  0  0  0  0  2  0  0  0  0  0  0
  -28.1630  -25.3770   20.9980 C   0  0  0  0  0  2  0  0  0  0  0  0
  -28.3780  -26.6380   20.2950 O   0  0  0  0  0  0  0  0  0  0  0  0
  -24.6720  -31.9650   23.3520 C   0  0  0  0  0  0  0  0  0  0  0  0
  -27.2640  -27.4640   20.2650 C   0  0  0  0  0  0  0  0  0  0  0  0
  -23.4720  -30.5570   21.7410 C   0  0  0  0  0  3  0  0  0  0  0  0
  -24.8910  -29.0150   20.2870 C   0  0  0  0  0  0  0  0  0  0  0  0
  -25.9900  -30.8970   21.5140 C   0  0  0  0  0  2  0  0  0  0  0  0
  -26.0610  -29.5230   20.8680 C   0  0  0  0  0  0  0  0  0  0  0  0
  -27.2550  -28.7570   20.8500 C   0  0  0  0  0  3  0  0  0  0  0  0
  -26.0820  -26.9920   19.6550 C   0  0  0  0  0  3  0  0  0  0  0  0
  -24.8980  -27.7510   19.6740 C   0  0  0  0  0  3  0  0  0  0  0  0
  -23.6520  -29.8790   20.3560 C   0  0  0  0  0  2  0  0  0  0  0  0
  -24.7340  -31.1500   22.2620 N   0  0  0  0  0  0  0  0  0  0  0  0
  -23.5870  -32.2610   23.8710 O   0  0  0  0  0  0  0  0  0  0  0  0
  -22.8260  -29.5450   22.7130 C   0  0  0  0  0  0  0  0  0  0  0  0
  -21.5070  -29.4580   22.5730 N   0  0  0  0  0  0  0  0  0  0  0  0
  -23.4850  -28.8640   23.5010 O   0  0  0  0  0  0  0  0  0  0  0  0
  -21.1130  -30.1420   21.9420 H   0  0  0  0  0  0  0  0  0  0  0  0
  -18.0870  -28.0140   23.0110 C   0  0  0  0  0  0  0  0  0  0  0  0
  -20.5600  -28.4470   22.9690 C   0  0  0  0  0  3  0  0  0  0  0  0
  -20.8340  -26.9520   22.7770 C   0  0  0  0  0  2  0  0  0  0  0  0
  -19.7400  -26.3710   21.8550 C   0  0  0  0  0  2  0  0  0  0  0  0
  -18.3190  -26.6300   22.3990 C   0  0  0  0  0  2  0  0  0  0  0  0
  -19.1660  -28.8470   23.3920 C   0  0  0  0  0  0  0  0  0  0  0  0
  -18.9230  -30.1100   23.9670 C   0  0  0  0  0  3  0  0  0  0  0  0
  -17.6020  -30.5660   24.1230 C   0  0  0  0  0  3  0  0  0  0  0  0
  -16.5250  -29.7560   23.7180 C   0  0  0  0  0  3  0  0  0  0  0  0
  -16.7670  -28.4780   23.1800 C   0  0  0  0  0  3  0  0  0  0  0  0
  -25.9570  -32.5880   23.9730 C   0  0  0  0  0  3  0  0  0  0  0  0
  -25.6500  -33.9850   24.2980 N   0  0  0  0  0  0  0  0  0  0  0  0
  -25.9680  -35.0310   23.5250 C   0  0  0  0  0  0  0  0  0  0  0  0
  -26.6250  -34.9190   22.4860 O   0  0  0  0  0  0  0  0  0  0  0  0
  -25.0650  -34.1440   25.1060 H   0  0  0  0  0  0  0  0  0  0  0  0
  -24.2360  -36.8200   23.1710 C   0  0  0  0  0  1  0  0  0  0  0  0
  -25.4830  -36.4210   23.9760 C   0  0  0  0  0  3  0  0  0  0  0  0
  -27.6240  -37.3090   24.7830 C   0  0  0  0  0  1  0  0  0  0  0  0
  -26.5150  -37.4730   23.8470 N   0  0  0  0  0  0  0  0  0  0  0  0
  -26.1110  -38.3940   23.9930 H   0  0  0  0  0  0  0  0  0  0  0  0
  -26.4680  -31.8140   25.2500 C   0  0  1  0  0  0  0  0  0  0  0  0
  -25.3730  -31.5820   26.3180 C   0  0  0  0  0  1  0  0  0  0  0  0
  -27.0460  -30.4340   24.8590 C   0  0  0  0  0  1  0  0  0  0  0  0
  -27.6220  -32.6060   25.9080 C   0  0  0  0  0  1  0  0  0  0  0  0
  1  2  2  0
  2  5  1  0
  2  6  1  0
  3  1  1  0
  3  7  1  0
  4 49  1  0
  4  1  1  0
  8  4  1  0
  9 10  1  0
  9  3  1  0
 11 19  1  0
 12 17  1  0
 13 14  1  0
 13 12  1  0
 15 14  1  0
 15 24  1  0
 15 16  1  0
 17 11  1  0
 17 16  1  0
 18 11  2  0
 19 10  1  0
 19 20  1  0
 21 22  2  0
 22 41  1  0
 23 22  1  0
 23 26  1  0
 24 21  1  0
 24 25  1  0
 25 23  2  0
 26 27  1  0
 27 28  2  0
 29 32  1  0
 29 28  1  0
 30 29  2  0
 31 30  1  0
 31 26  2  0
 32 33  1  0
 33 34  1  0
 34 35  2  0
 36 35  1  0
 36 40  1  0
 37 36  2  0
 38 33  2  0
 38 37  1  0
 39 38  1  0
 41 42  1  0
 42 45  1  0
 42 44  1  0
 43 41  2  0
 46 47  1  0
 46 21  1  0
 48 46  1  0
 50 51  1  0
 50 49  1  0
 52 51  1  0
 53 64  2  0
 54 52  1  0
 54 59  1  0
 55 63  1  0
 55 65  1  0
 56 62  1  0
 56 58  1  0
 57 63  1  0
 58 57  1  0
 59 58  2  0
 60 61  1  0
 60 54  2  0
 61 56  2  0
 62 55  1  0
 63 53  1  0
 65 67  2  0
 66 65  1  0
 68 66  1  0
 69 78  2  0
 69 74  1  0
 70 66  1  0
 70 74  1  0
 71 70  1  0
 72 73  1  0
 72 71  1  0
 73 69  1  0
 74 75  2  0
 75 76  1  0
 77 76  2  0
 78 77  1  0
 79 53  1  0
 79 80  1  0
 79 89  1  0
 80 83  1  0
 81 85  1  0
 81 80  1  0
 82 81  2  0
 85 84  1  0
 87 85  1  0
 87 88  1  0
 87 86  1  0
 89 92  1  1
 89 90  1  0
 91 89  1  0
M  ISO  4  11 100  19 100  51 101  52 101
M  END
>  <TORSDO>  (84) 
F 21

>  <SCORE>  (84) 
-13.458

>  <name>  (84) 
83

>  <ligand_id>  (84) 
83

>  <original_smiles>  (84) 
[H]c1c([H])c([H])c2c(c1[H])C([H])([H])C([H])([H])C([H])([H])C2([H])N([H])C(=O)C1([H])N(C(=O)C([H])(N([H])C(=O)C([H])(N([H])C([H])([H])[H])C([H])([H])[H])C(C([H])([H])[H])(C([H])([H])[H])C([H])([H])[H])C([H])([H])c2c([H])c(OC([H])([H])C([H])([H])C([H])([H])[N+]([H])=C(N([H])[H])N([H])C([H])([H])C([H])([H])N([H])C(=O)N3C([H])([H])C([H])([H])C([H])([H])C([H])(n4nc(-c5c([H])c([H])c(Oc6c([H])c([H])c(F)c([H])c6F)c([H])c5[H])c(C(=O)N([H])[H])c4N([H])[H])C3([H])[H])c([H])c([H])c2C1([H])[H]

>  <smiles>  (84) 
[H]c1c([H])c([H])c2c(c1[H])C([H])([H])C([H])([H])C([H])([H])C2([H])N([H])C(=O)C1([H])N(C(=O)C([H])(N([H])C(=O)C([H])(N([H])C([H])([H])[H])C([H])([H])[H])C(C([H])([H])[H])(C([H])([H])[H])C([H])([H])[H])C([H])([H])c2c([H])c(OC([H])([H])C([H])([H])C([H])([H])[N+]([H])=C(N([H])[H])N([H])C([H])([H])C([H])([H])N([H])C(=O)N3C([H])([H])C([H])([H])C([H])([H])C([H])(n4nc(-c5c([H])c([H])c(Oc6c([H])c([H])c(F)c([H])c6F)c([H])c5[H])c(C(=O)N([H])[H])c4N([H])[H])C3([H])[H])c([H])c([H])c2C1([H])[H]

$$$$
84:0:0
     RDKit          3D

 92100  0  0  1  0  0  0  0  0999 V2000
  -30.8710  -22.4800   20.4570 C   0  0  0  0  0  3  0  0  0  0  0  0
  -29.0020  -22.5750   18.9050 C   0  0  0  0  0  3  0  0  0  0  0  0
  -31.0410  -21.1090   20.1740 C   0  0  0  0  0  3  0  0  0  0  0  0
  -29.1620  -21.2000   18.6360 C   0  0  0  0  0  3  0  0  0  0  0  0
  -29.8540  -23.2290   19.8270 C   0  0  0  0  0  0  0  0  0  0  0  0
  -30.1840  -20.4510   19.2640 C   0  0  0  0  0  0  0  0  0  0  0  0
  -31.6780  -18.7660   18.1060 C   0  0  0  0  0  1  0  0  0  0  0  0
  -30.3800  -18.9750   18.9090 C   0  0  0  0  0  3  0  0  0  0  0  0
  -30.3260  -18.0950   20.1050 N   0  0  0  0  0  4  0  0  0  0  0  0
  -31.2640  -17.9710   20.4450 H   0  0  0  0  0  0  0  0  0  0  0  0
  -29.7990  -18.5840   20.8110 H   0  0  0  0  0  0  0  0  0  0  0  0
  -29.6890  -16.7710   19.8690 C   0  0  0  0  0  2  0  0  0  0  0  0
  -29.8970  -15.7300   21.0110 C   0  0  0  0  0  2  0  0  0  0  0  0
  -30.6390  -14.4690   20.5130 C   0  0  0  0  0  0  0  0  0  0  0  0
  -30.3680  -12.3110   19.3610 C   0  0  0  0  0  2  0  0  0  0  0  0
  -29.4390  -12.5520   18.1500 C   0  0  0  0  0  2  0  0  0  0  0  0
  -27.9540  -12.4330   18.5570 C   0  0  0  0  0  2  0  0  0  0  0  0
  -27.6160  -13.2470   19.8380 C   0  0  0  0  0  3  0  0  0  0  0  0
  -28.6580  -12.9690   20.9440 C   0  0  0  0  0  2  0  0  0  0  0  0
  -29.9880  -13.2780   20.4020 N   0  0  0  0  0  0  0  0  0  0  0  0
  -31.7800  -14.6370   20.0700 O   0  0  0  0  0  0  0  0  0  0  0  0
  -25.2070  -13.8750   20.5030 C   0  0  0  0  0  0  0  0  0  0  0  0
  -24.1310  -13.1100   20.8680 C   0  0  0  0  0  0  0  0  0  0  0  0
  -24.5860  -11.7570   20.8540 C   0  0  0  0  0  0  0  0  0  0  0  0
  -26.2530  -12.9860   20.2970 N   0  0  0  0  0  0  0  0  0  0  0  0
  -25.8790  -11.7080   20.5610 N   0  0  0  0  0  0  0  0  0  0  0  0
  -23.8520  -10.5000   21.0490 C   0  0  0  0  0  0  0  0  0  0  0  0
  -24.2820   -9.5320   21.9830 C   0  0  0  0  0  3  0  0  0  0  0  0
  -23.5530   -8.3370   22.1640 C   0  0  0  0  0  3  0  0  0  0  0  0
  -22.3770   -8.1040   21.4130 C   0  0  0  0  0  0  0  0  0  0  0  0
  -21.9640   -9.0610   20.4690 C   0  0  0  0  0  3  0  0  0  0  0  0
  -22.6960  -10.2470   20.2840 C   0  0  0  0  0  3  0  0  0  0  0  0
  -21.6170   -6.9620   21.5060 O   0  0  0  0  0  0  0  0  0  0  0  0
  -21.5800   -6.2120   22.6530 C   0  0  0  0  0  0  0  0  0  0  0  0
  -21.1850   -6.7630   23.8910 C   0  0  0  0  0  3  0  0  0  0  0  0
  -21.0900   -5.9400   25.0310 C   0  0  0  0  0  3  0  0  0  0  0  0
  -21.3870   -4.5670   24.9330 C   0  0  0  0  0  0  0  0  0  0  0  0
  -21.7760   -4.0140   23.7010 C   0  0  0  0  0  3  0  0  0  0  0  0
  -21.8690   -4.8340   22.5630 C   0  0  0  0  0  0  0  0  0  0  0  0
  -22.2230   -4.2940   21.3720 F   0  0  0  0  0  0  0  0  0  0  0  0
  -21.2920   -3.7750   26.0270 F   0  0  0  0  0  0  0  0  0  0  0  0
  -22.7320  -13.5950   21.1220 C   0  0  0  0  0  0  0  0  0  0  0  0
  -21.9930  -12.9110   21.9890 N   0  0  0  0  0  0  0  0  0  0  0  0
  -22.3020  -14.6180   20.5870 O   0  0  0  0  0  0  0  0  0  0  0  0
  -22.3540  -12.0870   22.4470 H   0  0  0  0  0  0  0  0  0  0  0  0
  -21.0520  -13.2140   22.1970 H   0  0  0  0  0  0  0  0  0  0  0  0
  -25.3780  -15.2430   20.3130 N   0  0  0  0  0  0  0  0  0  0  0  0
  -24.6150  -15.9030   20.4120 H   0  0  0  0  0  0  0  0  0  0  0  0
  -26.2360  -15.6730   19.9900 H   0  0  0  0  0  0  0  0  0  0  0  0
  -29.7260  -24.7210   20.1520 C   0  0  0  0  0  2  0  0  0  0  0  0
  -28.4120  -25.4020   19.7200 C   0  0  0  0  0  2  0  0  0  0  0  0
  -28.4110  -26.7670   20.1470 O   0  0  0  0  0  0  0  0  0  0  0  0
  -24.6030  -31.9050   23.2580 C   0  0  0  0  0  0  0  0  0  0  0  0
  -27.2160  -27.4570   20.1470 C   0  0  0  0  0  0  0  0  0  0  0  0
  -23.3790  -30.4960   21.6350 C   0  0  0  0  0  3  0  0  0  0  0  0
  -24.8170  -28.9560   20.1970 C   0  0  0  0  0  0  0  0  0  0  0  0
  -25.9030  -30.8470   21.4160 C   0  0  0  0  0  2  0  0  0  0  0  0
  -25.9780  -29.4780   20.7750 C   0  0  0  0  0  0  0  0  0  0  0  0
  -27.1780  -28.7330   20.7550 C   0  0  0  0  0  3  0  0  0  0  0  0
  -26.0310  -26.9480   19.5640 C   0  0  0  0  0  3  0  0  0  0  0  0
  -24.8350  -27.6880   19.5940 C   0  0  0  0  0  3  0  0  0  0  0  0
  -23.5730  -29.8130   20.2540 C   0  0  0  0  0  2  0  0  0  0  0  0
  -24.6470  -31.0940   22.1640 N   0  0  0  0  0  0  0  0  0  0  0  0
  -23.5230  -32.2070   23.7840 O   0  0  0  0  0  0  0  0  0  0  0  0
  -22.7360  -29.4770   22.5990 C   0  0  0  0  0  0  0  0  0  0  0  0
  -21.4120  -29.2850   22.4720 N   0  0  0  0  0  0  0  0  0  0  0  0
  -23.4230  -28.8590   23.4170 O   0  0  0  0  0  0  0  0  0  0  0  0
  -20.9170  -29.8410   21.7870 H   0  0  0  0  0  0  0  0  0  0  0  0
  -18.0480  -28.0580   22.9450 C   0  0  0  0  0  0  0  0  0  0  0  0
  -20.5990  -28.3460   23.2440 C   0  0  0  0  0  3  0  0  0  0  0  0
  -20.7230  -26.9100   22.6840 C   0  0  0  0  0  2  0  0  0  0  0  0
  -19.6370  -26.5640   21.6610 C   0  0  0  0  0  2  0  0  0  0  0  0
  -18.2470  -26.7030   22.2870 C   0  0  0  0  0  2  0  0  0  0  0  0
  -19.1530  -28.8370   23.3800 C   0  0  0  0  0  0  0  0  0  0  0  0
  -18.9150  -30.1050   23.9500 C   0  0  0  0  0  3  0  0  0  0  0  0
  -17.6050  -30.5970   24.0940 C   0  0  0  0  0  3  0  0  0  0  0  0
  -16.5120  -29.8150   23.6780 C   0  0  0  0  0  3  0  0  0  0  0  0
  -16.7350  -28.5470   23.1100 C   0  0  0  0  0  3  0  0  0  0  0  0
  -25.9000  -32.5180   23.8750 C   0  0  0  0  0  3  0  0  0  0  0  0
  -25.6090  -33.9160   24.2170 N   0  0  0  0  0  0  0  0  0  0  0  0
  -25.9270  -34.9680   23.4480 C   0  0  0  0  0  0  0  0  0  0  0  0
  -26.5740  -34.8610   22.4040 O   0  0  0  0  0  0  0  0  0  0  0  0
  -25.0350  -34.0750   25.0320 H   0  0  0  0  0  0  0  0  0  0  0  0
  -24.1870  -36.7520   23.1350 C   0  0  0  0  0  1  0  0  0  0  0  0
  -25.4500  -36.3540   23.9150 C   0  0  0  0  0  3  0  0  0  0  0  0
  -27.6060  -37.2400   24.6860 C   0  0  0  0  0  1  0  0  0  0  0  0
  -26.4780  -37.4080   23.7730 N   0  0  0  0  0  0  0  0  0  0  0  0
  -26.0760  -38.3280   23.9300 H   0  0  0  0  0  0  0  0  0  0  0  0
  -26.4300  -31.7340   25.1370 C   0  0  1  0  0  0  0  0  0  0  0  0
  -25.3490  -31.4920   26.2150 C   0  0  0  0  0  1  0  0  0  0  0  0
  -27.0050  -30.3600   24.7250 C   0  0  0  0  0  1  0  0  0  0  0  0
  -27.5950  -32.5170   25.7900 C   0  0  0  0  0  1  0  0  0  0  0  0
  2  5  1  0
  3  1  1  0
  4  2  2  0
  4  6  1  0
  5 50  1  0
  5  1  2  0
  6  3  2  0
  8  7  1  0
  8  6  1  0
  8  9  1  0
  9 10  1  0
  9 11  1  0
 12  9  1  0
 12 13  1  0
 14 13  1  0
 15 20  1  0
 16 17  1  0
 16 15  1  0
 18 17  1  0
 18 25  1  0
 18 19  1  0
 20 14  1  0
 20 19  1  0
 21 14  2  0
 22 23  2  0
 23 42  1  0
 24 23  1  0
 24 27  1  0
 25 22  1  0
 25 26  1  0
 26 24  2  0
 27 28  1  0
 28 29  2  0
 30 33  1  0
 30 29  1  0
 31 30  2  0
 32 31  1  0
 32 27  2  0
 33 34  1  0
 34 35  1  0
 35 36  2  0
 37 36  1  0
 37 41  1  0
 38 37  2  0
 39 34  2  0
 39 38  1  0
 40 39  1  0
 42 43  1  0
 43 46  1  0
 43 45  1  0
 44 42  2  0
 47 48  1  0
 47 22  1  0
 49 47  1  0
 51 52  1  0
 51 50  1  0
 53 64  2  0
 54 52  1  0
 54 59  1  0
 55 63  1  0
 55 65  1  0
 56 62  1  0
 56 58  1  0
 57 63  1  0
 58 57  1  0
 59 58  2  0
 60 61  1  0
 60 54  2  0
 61 56  2  0
 62 55  1  0
 63 53  1  0
 65 67  2  0
 66 65  1  0
 68 66  1  0
 69 78  2  0
 69 74  1  0
 70 66  1  0
 70 74  1  0
 71 70  1  0
 72 73  1  0
 72 71  1  0
 73 69  1  0
 74 75  2  0
 75 76  1  0
 77 76  2  0
 78 77  1  0
 79 53  1  0
 79 80  1  0
 79 89  1  0
 80 83  1  0
 81 85  1  0
 81 80  1  0
 82 81  2  0
 85 84  1  0
 87 85  1  0
 87 88  1  0
 87 86  1  0
 89 92  1  1
 89 90  1  0
 91 89  1  0
M  ISO  4  13 100  14 100  51 101  52 101
M  END
>  <TORSDO>  (85) 
F 22

>  <SCORE>  (85) 
-13.056

>  <name>  (85) 
84

>  <ligand_id>  (85) 
84

>  <original_smiles>  (85) 
[H]c1c([H])c([H])c2c(c1[H])C([H])([H])C([H])([H])C([H])([H])C2([H])N([H])C(=O)C1([H])N(C(=O)C([H])(N([H])C(=O)C([H])(N([H])C([H])([H])[H])C([H])([H])[H])C(C([H])([H])[H])(C([H])([H])[H])C([H])([H])[H])C([H])([H])c2c([H])c(OC([H])([H])C([H])([H])c3c([H])c([H])c(C([H])(C([H])([H])[H])[N+]([H])([H])C([H])([H])C([H])([H])C(=O)N4C([H])([H])C([H])([H])C([H])([H])C([H])(n5nc(-c6c([H])c([H])c(Oc7c([H])c([H])c(F)c([H])c7F)c([H])c6[H])c(C(=O)N([H])[H])c5N([H])[H])C4([H])[H])c([H])c3[H])c([H])c([H])c2C1([H])[H]

>  <smiles>  (85) 
[H]c1c([H])c([H])c2c(c1[H])C([H])([H])C([H])([H])C([H])([H])C2([H])N([H])C(=O)C1([H])N(C(=O)C([H])(N([H])C(=O)C([H])(N([H])C([H])([H])[H])C([H])([H])[H])C(C([H])([H])[H])(C([H])([H])[H])C([H])([H])[H])C([H])([H])c2c([H])c(OC([H])([H])C([H])([H])c3c([H])c([H])c(C([H])(C([H])([H])[H])[N+]([H])([H])C([H])([H])C([H])([H])C(=O)N4C([H])([H])C([H])([H])C([H])([H])C([H])(n5nc(-c6c([H])c([H])c(Oc7c([H])c([H])c(F)c([H])c7F)c([H])c6[H])c(C(=O)N([H])[H])c5N([H])[H])C4([H])[H])c([H])c3[H])c([H])c([H])c2C1([H])[H]

$$$$
85:0:0
     RDKit          3D

 93101  0  0  1  0  0  0  0  0999 V2000
  -29.0180  -22.7090   20.0920 C   0  0  0  0  0  3  0  0  0  0  0  0
  -27.6770  -20.8950   19.1710 C   0  0  0  0  0  3  0  0  0  0  0  0
  -28.7860  -21.2680   19.9520 C   0  0  0  0  0  0  0  0  0  0  0  0
  -28.2070  -23.7370   19.4480 C   0  0  0  0  0  0  0  0  0  0  0  0
  -27.1430  -23.2300   18.6490 C   0  0  0  0  0  0  0  0  0  0  0  0
  -26.8800  -21.8540   18.5320 C   0  0  0  0  0  0  0  0  0  0  0  0
  -25.8640  -21.4540   17.7270 F   0  0  0  0  0  0  0  0  0  0  0  0
  -31.1680  -20.3880   20.2490 C   0  0  0  0  0  1  0  0  0  0  0  0
  -29.6890  -20.0960   20.5570 C   0  0  0  0  0  3  0  0  0  0  0  0
  -29.3480  -18.5380   20.1930 C   0  0  0  0  0  3  0  0  0  0  0  0
  -30.2600  -17.3220   20.7610 C   0  0  0  0  0  3  0  0  0  0  0  0
  -30.5800  -14.7350   20.3880 C   0  0  0  0  0  0  0  0  0  0  0  0
  -30.3640  -12.4710   19.3610 C   0  0  0  0  0  2  0  0  0  0  0  0
  -29.4150  -12.5550   18.1440 C   0  0  0  0  0  2  0  0  0  0  0  0
  -27.9500  -12.3740   18.5820 C   0  0  0  0  0  2  0  0  0  0  0  0
  -27.5800  -13.2640   19.8000 C   0  0  0  0  0  3  0  0  0  0  0  0
  -28.6480  -13.1670   20.9120 C   0  0  0  0  0  2  0  0  0  0  0  0
  -29.9420  -13.5190   20.3130 N   0  0  0  0  0  0  0  0  0  0  0  0
  -31.7660  -14.8360   20.0680 O   0  0  0  0  0  0  0  0  0  0  0  0
  -29.8190  -15.8630   20.6270 N   0  0  0  0  0  0  0  0  0  0  0  0
  -28.8430  -15.6760   20.8080 H   0  0  0  0  0  0  0  0  0  0  0  0
  -25.1900  -13.8520   20.5330 C   0  0  0  0  0  0  0  0  0  0  0  0
  -24.1270  -13.0740   20.9050 C   0  0  0  0  0  0  0  0  0  0  0  0
  -24.5950  -11.7250   20.8750 C   0  0  0  0  0  0  0  0  0  0  0  0
  -26.2360  -12.9770   20.2970 N   0  0  0  0  0  0  0  0  0  0  0  0
  -25.8870  -11.6910   20.5670 N   0  0  0  0  0  0  0  0  0  0  0  0
  -23.8730  -10.4610   21.0660 C   0  0  0  0  0  0  0  0  0  0  0  0
  -24.3180   -9.4860   21.9880 C   0  0  0  0  0  3  0  0  0  0  0  0
  -23.5950   -8.2870   22.1680 C   0  0  0  0  0  3  0  0  0  0  0  0
  -22.4120   -8.0520   21.4270 C   0  0  0  0  0  0  0  0  0  0  0  0
  -21.9860   -9.0130   20.4930 C   0  0  0  0  0  3  0  0  0  0  0  0
  -22.7090  -10.2040   20.3120 C   0  0  0  0  0  3  0  0  0  0  0  0
  -21.6610   -6.9050   21.5180 O   0  0  0  0  0  0  0  0  0  0  0  0
  -21.6390   -6.1490   22.6610 C   0  0  0  0  0  0  0  0  0  0  0  0
  -21.2450   -6.6880   23.9060 C   0  0  0  0  0  3  0  0  0  0  0  0
  -21.1720   -5.8580   25.0420 C   0  0  0  0  0  3  0  0  0  0  0  0
  -21.4800   -4.4880   24.9350 C   0  0  0  0  0  0  0  0  0  0  0  0
  -21.8690   -3.9480   23.6960 C   0  0  0  0  0  3  0  0  0  0  0  0
  -21.9440   -4.7750   22.5620 C   0  0  0  0  0  0  0  0  0  0  0  0
  -22.2980   -4.2470   21.3660 F   0  0  0  0  0  0  0  0  0  0  0  0
  -21.4020   -3.6870   26.0230 F   0  0  0  0  0  0  0  0  0  0  0  0
  -22.7260  -13.5460   21.1750 C   0  0  0  0  0  0  0  0  0  0  0  0
  -22.0030  -12.8500   22.0450 N   0  0  0  0  0  0  0  0  0  0  0  0
  -22.2850  -14.5670   20.6520 O   0  0  0  0  0  0  0  0  0  0  0  0
  -22.3700  -12.0180   22.4840 H   0  0  0  0  0  0  0  0  0  0  0  0
  -21.0670  -13.1520   22.2750 H   0  0  0  0  0  0  0  0  0  0  0  0
  -25.3490  -15.2240   20.3510 N   0  0  0  0  0  0  0  0  0  0  0  0
  -24.5780  -15.8750   20.4480 H   0  0  0  0  0  0  0  0  0  0  0  0
  -26.1870  -15.6610   19.9920 H   0  0  0  0  0  0  0  0  0  0  0  0
  -26.3510  -24.0170   17.8690 O   0  0  0  0  0  0  0  0  0  0  0  0
  -25.7040  -23.4550   17.4500 H   0  0  0  0  0  0  0  0  0  0  0  0
  -28.6010  -25.2880   19.2760 C   0  0  0  0  0  2  0  0  0  0  0  0
  -28.3260  -26.4160   20.2220 O   0  0  0  0  0  0  0  0  0  0  0  0
  -24.6400  -31.8940   23.2250 C   0  0  0  0  0  0  0  0  0  0  0  0
  -27.2240  -27.2970   20.1360 C   0  0  0  0  0  0  0  0  0  0  0  0
  -23.4260  -30.4910   21.6020 C   0  0  0  0  0  3  0  0  0  0  0  0
  -24.8640  -28.9410   20.1620 C   0  0  0  0  0  0  0  0  0  0  0  0
  -25.9710  -30.7900   21.4110 C   0  0  0  0  0  2  0  0  0  0  0  0
  -26.0410  -29.4120   20.7550 C   0  0  0  0  0  0  0  0  0  0  0  0
  -27.2200  -28.6000   20.7390 C   0  0  0  0  0  3  0  0  0  0  0  0
  -26.0200  -26.8860   19.5320 C   0  0  0  0  0  3  0  0  0  0  0  0
  -24.8560  -27.6810   19.5480 C   0  0  0  0  0  3  0  0  0  0  0  0
  -23.6310  -29.8230   20.2200 C   0  0  0  0  0  2  0  0  0  0  0  0
  -24.6990  -31.0730   22.1370 N   0  0  0  0  0  0  0  0  0  0  0  0
  -23.5540  -32.2040   23.7330 O   0  0  0  0  0  0  0  0  0  0  0  0
  -22.7650  -29.4730   22.5650 C   0  0  0  0  0  0  0  0  0  0  0  0
  -21.4390  -29.2920   22.4420 N   0  0  0  0  0  0  0  0  0  0  0  0
  -23.4460  -28.8510   23.3830 O   0  0  0  0  0  0  0  0  0  0  0  0
  -20.9470  -29.8510   21.7580 H   0  0  0  0  0  0  0  0  0  0  0  0
  -18.0690  -28.0700   22.9390 C   0  0  0  0  0  0  0  0  0  0  0  0
  -20.6250  -28.3500   23.2130 C   0  0  0  0  0  3  0  0  0  0  0  0
  -20.7430  -26.9180   22.6390 C   0  0  0  0  0  2  0  0  0  0  0  0
  -19.6390  -26.5810   21.6310 C   0  0  0  0  0  2  0  0  0  0  0  0
  -18.2590  -26.7190   22.2740 C   0  0  0  0  0  2  0  0  0  0  0  0
  -19.1820  -28.8420   23.3690 C   0  0  0  0  0  0  0  0  0  0  0  0
  -18.9530  -30.1050   23.9540 C   0  0  0  0  0  3  0  0  0  0  0  0
  -17.6450  -30.5970   24.1150 C   0  0  0  0  0  3  0  0  0  0  0  0
  -16.5470  -29.8240   23.7000 C   0  0  0  0  0  3  0  0  0  0  0  0
  -16.7590  -28.5620   23.1180 C   0  0  0  0  0  3  0  0  0  0  0  0
  -25.9250  -32.5160   23.8530 C   0  0  0  0  0  3  0  0  0  0  0  0
  -25.6190  -33.9140   24.1890 N   0  0  0  0  0  0  0  0  0  0  0  0
  -25.9430  -34.9690   23.4290 C   0  0  0  0  0  0  0  0  0  0  0  0
  -26.6030  -34.8660   22.3910 O   0  0  0  0  0  0  0  0  0  0  0  0
  -25.0290  -34.0670   24.9940 H   0  0  0  0  0  0  0  0  0  0  0  0
  -24.2100  -36.7640   23.0970 C   0  0  0  0  0  1  0  0  0  0  0  0
  -25.4600  -36.3570   23.8940 C   0  0  0  0  0  3  0  0  0  0  0  0
  -27.6020  -37.2410   24.7060 C   0  0  0  0  0  1  0  0  0  0  0  0
  -26.4920  -37.4100   23.7730 N   0  0  0  0  0  0  0  0  0  0  0  0
  -26.0880  -38.3300   23.9270 H   0  0  0  0  0  0  0  0  0  0  0  0
  -26.4410  -31.7440   25.1280 C   0  0  1  0  0  0  0  0  0  0  0  0
  -25.3490  -31.5070   26.1970 C   0  0  0  0  0  1  0  0  0  0  0  0
  -27.0210  -30.3650   24.7370 C   0  0  0  0  0  1  0  0  0  0  0  0
  -27.5950  -32.5360   25.7870 C   0  0  0  0  0  1  0  0  0  0  0  0
  2  3  2  0
  3  1  1  0
  3  9  1  0
  4  1  2  0
  5  4  1  0
  6  5  2  0
  6  2  1  0
  7  6  1  0
  9  8  1  0
 10  9  1  0
 10 11  2  0
 12 20  1  0
 13 18  1  0
 14 15  1  0
 14 13  1  0
 16 15  1  0
 16 25  1  0
 16 17  1  0
 18 12  1  0
 18 17  1  0
 19 12  2  0
 20 11  1  0
 20 21  1  0
 22 23  2  0
 23 42  1  0
 24 23  1  0
 24 27  1  0
 25 22  1  0
 25 26  1  0
 26 24  2  0
 27 28  1  0
 28 29  2  0
 30 33  1  0
 30 29  1  0
 31 30  2  0
 32 31  1  0
 32 27  2  0
 33 34  1  0
 34 35  1  0
 35 36  2  0
 37 36  1  0
 37 41  1  0
 38 37  2  0
 39 34  2  0
 39 38  1  0
 40 39  1  0
 42 43  1  0
 43 46  1  0
 43 45  1  0
 44 42  2  0
 47 48  1  0
 47 22  1  0
 49 47  1  0
 50  5  1  0
 51 50  1  0
 52  4  1  0
 52 53  1  0
 54 65  2  0
 55 53  1  0
 55 60  1  0
 56 64  1  0
 56 66  1  0
 57 63  1  0
 57 59  1  0
 58 64  1  0
 59 58  1  0
 60 59  2  0
 61 62  1  0
 61 55  2  0
 62 57  2  0
 63 56  1  0
 64 54  1  0
 66 68  2  0
 67 66  1  0
 69 67  1  0
 70 79  2  0
 70 75  1  0
 71 67  1  0
 71 75  1  0
 72 71  1  0
 73 74  1  0
 73 72  1  0
 74 70  1  0
 75 76  2  0
 76 77  1  0
 78 77  2  0
 79 78  1  0
 80 54  1  0
 80 81  1  0
 80 90  1  0
 81 84  1  0
 82 86  1  0
 82 81  1  0
 83 82  2  0
 86 85  1  0
 88 86  1  0
 88 89  1  0
 88 87  1  0
 90 93  1  1
 90 91  1  0
 92 90  1  0
M  ISO  4  12 100  20 100  52 101  53 101
M  END
>  <TORSDO>  (86) 
F 21

>  <SCORE>  (86) 
-13.873

>  <name>  (86) 
85

>  <ligand_id>  (86) 
85

>  <original_smiles>  (86) 
[H]Oc1c(F)c([H])c(C([H])(C([H])([H])[H])C([H])([H])C([H])([H])N([H])C(=O)N2C([H])([H])C([H])([H])C([H])([H])C([H])(n3nc(-c4c([H])c([H])c(Oc5c([H])c([H])c(F)c([H])c5F)c([H])c4[H])c(C(=O)N([H])[H])c3N([H])[H])C2([H])[H])c([H])c1C([H])([H])Oc1c([H])c([H])c2c(c1[H])C([H])([H])N(C(=O)C([H])(N([H])C(=O)C([H])(N([H])C([H])([H])[H])C([H])([H])[H])C(C([H])([H])[H])(C([H])([H])[H])C([H])([H])[H])C([H])(C(=O)N([H])C1([H])c3c([H])c([H])c([H])c([H])c3C([H])([H])C([H])([H])C1([H])[H])C2([H])[H]

>  <smiles>  (86) 
[H]Oc1c(F)c([H])c(C([H])(C([H])([H])[H])C([H])([H])C([H])([H])N([H])C(=O)N2C([H])([H])C([H])([H])C([H])([H])C([H])(n3nc(-c4c([H])c([H])c(Oc5c([H])c([H])c(F)c([H])c5F)c([H])c4[H])c(C(=O)N([H])[H])c3N([H])[H])C2([H])[H])c([H])c1C([H])([H])Oc1c([H])c([H])c2c(c1[H])C([H])([H])N(C(=O)C([H])(N([H])C(=O)C([H])(N([H])C([H])([H])[H])C([H])([H])[H])C(C([H])([H])[H])(C([H])([H])[H])C([H])([H])[H])C([H])(C(=O)N([H])C1([H])c3c([H])c([H])c([H])c([H])c3C([H])([H])C([H])([H])C1([H])[H])C2([H])[H]

$$$$
86:0:0
     RDKit          3D

 93101  0  0  1  0  0  0  0  0999 V2000
  -29.3410  -20.4340   17.9930 C   0  0  0  0  0  3  0  0  0  0  0  0
  -29.1600  -21.5650   18.8110 C   0  0  0  0  0  3  0  0  0  0  0  0
  -29.2380  -19.1420   18.5390 C   0  0  0  0  0  3  0  0  0  0  0  0
  -28.7600  -20.1160   20.7240 C   0  0  0  0  0  3  0  0  0  0  0  0
  -28.8570  -21.4230   20.1850 C   0  0  0  0  0  0  0  0  0  0  0  0
  -28.9520  -18.9750   19.9090 C   0  0  0  0  0  0  0  0  0  0  0  0
  -28.6440  -22.5990   21.0600 C   0  0  0  0  0  3  0  0  0  0  0  0
  -28.8880  -23.8900   20.7350 C   0  0  0  0  0  3  0  0  0  0  0  0
  -28.6020  -25.0080   21.6570 C   0  0  0  0  0  0  0  0  0  0  0  0
  -28.0410  -24.8570   22.7500 O   0  0  0  0  0  0  0  0  0  0  0  0
  -29.0460  -26.4180   21.2350 C   0  0  0  0  0  2  0  0  0  0  0  0
  -28.4490  -26.7740   19.9860 O   0  0  0  0  0  0  0  0  0  0  0  0
  -24.6260  -31.8930   23.1880 C   0  0  0  0  0  0  0  0  0  0  0  0
  -27.2940  -27.5110   20.0610 C   0  0  0  0  0  0  0  0  0  0  0  0
  -23.4240  -30.4930   21.5380 C   0  0  0  0  0  3  0  0  0  0  0  0
  -24.8850  -28.9800   20.0990 C   0  0  0  0  0  0  0  0  0  0  0  0
  -25.9450  -30.8720   21.3400 C   0  0  0  0  0  2  0  0  0  0  0  0
  -26.0380  -29.5080   20.6930 C   0  0  0  0  0  0  0  0  0  0  0  0
  -27.2440  -28.7790   20.6810 C   0  0  0  0  0  3  0  0  0  0  0  0
  -26.1330  -26.9930   19.4530 C   0  0  0  0  0  3  0  0  0  0  0  0
  -24.9240  -27.7180   19.4810 C   0  0  0  0  0  3  0  0  0  0  0  0
  -23.6360  -29.8280   20.1520 C   0  0  0  0  0  2  0  0  0  0  0  0
  -24.6830  -31.0970   22.0820 N   0  0  0  0  0  0  0  0  0  0  0  0
  -23.5400  -32.1790   23.7110 O   0  0  0  0  0  0  0  0  0  0  0  0
  -22.7810  -29.4570   22.4890 C   0  0  0  0  0  0  0  0  0  0  0  0
  -21.4560  -29.2760   22.3680 N   0  0  0  0  0  0  0  0  0  0  0  0
  -23.4720  -28.8190   23.2860 O   0  0  0  0  0  0  0  0  0  0  0  0
  -20.9580  -29.8420   21.6940 H   0  0  0  0  0  0  0  0  0  0  0  0
  -18.0830  -28.0950   22.8930 C   0  0  0  0  0  0  0  0  0  0  0  0
  -20.6470  -28.3260   23.1310 C   0  0  0  0  0  3  0  0  0  0  0  0
  -20.7290  -26.9090   22.5200 C   0  0  0  0  0  2  0  0  0  0  0  0
  -19.6090  -26.6180   21.5160 C   0  0  0  0  0  2  0  0  0  0  0  0
  -18.2380  -26.7600   22.1840 C   0  0  0  0  0  2  0  0  0  0  0  0
  -19.2140  -28.8370   23.3240 C   0  0  0  0  0  0  0  0  0  0  0  0
  -19.0140  -30.0900   23.9440 C   0  0  0  0  0  3  0  0  0  0  0  0
  -17.7170  -30.5980   24.1410 C   0  0  0  0  0  3  0  0  0  0  0  0
  -16.6000  -29.8500   23.7290 C   0  0  0  0  0  3  0  0  0  0  0  0
  -16.7850  -28.6010   23.1090 C   0  0  0  0  0  3  0  0  0  0  0  0
  -25.9120  -32.5130   23.8190 C   0  0  0  0  0  3  0  0  0  0  0  0
  -25.6070  -33.9070   24.1650 N   0  0  0  0  0  0  0  0  0  0  0  0
  -25.9280  -34.9630   23.4080 C   0  0  0  0  0  0  0  0  0  0  0  0
  -26.5910  -34.8690   22.3720 O   0  0  0  0  0  0  0  0  0  0  0  0
  -25.0240  -34.0550   24.9750 H   0  0  0  0  0  0  0  0  0  0  0  0
  -24.1960  -36.7540   23.0680 C   0  0  0  0  0  1  0  0  0  0  0  0
  -25.4370  -36.3470   23.8770 C   0  0  0  0  0  3  0  0  0  0  0  0
  -27.5660  -37.2310   24.7200 C   0  0  0  0  0  1  0  0  0  0  0  0
  -26.4670  -37.4020   23.7730 N   0  0  0  0  0  0  0  0  0  0  0  0
  -26.0600  -38.3210   23.9280 H   0  0  0  0  0  0  0  0  0  0  0  0
  -26.4380  -31.7260   25.0820 C   0  0  1  0  0  0  0  0  0  0  0  0
  -25.3480  -31.4700   26.1490 C   0  0  0  0  0  1  0  0  0  0  0  0
  -27.0270  -30.3580   24.6680 C   0  0  0  0  0  1  0  0  0  0  0  0
  -27.5890  -32.5160   25.7510 C   0  0  0  0  0  1  0  0  0  0  0  0
  -28.7980  -17.5680   20.4760 C   0  0  0  0  0  2  0  0  0  0  0  0
  -30.5830  -17.5020   22.3090 C   0  0  0  0  0  1  0  0  0  0  0  0
  -30.1150  -16.9200   20.9650 C   0  0  0  0  0  3  0  0  0  0  0  0
  -30.6580  -14.5080   20.4950 C   0  0  0  0  0  0  0  0  0  0  0  0
  -30.3870  -12.3850   19.2770 C   0  0  0  0  0  2  0  0  0  0  0  0
  -29.4490  -12.6340   18.0780 C   0  0  0  0  0  2  0  0  0  0  0  0
  -27.9730  -12.4880   18.4950 C   0  0  0  0  0  2  0  0  0  0  0  0
  -27.6320  -13.2850   19.7840 C   0  0  0  0  0  3  0  0  0  0  0  0
  -28.6790  -13.0040   20.8880 C   0  0  0  0  0  2  0  0  0  0  0  0
  -30.0100  -13.3240   20.3440 N   0  0  0  0  0  0  0  0  0  0  0  0
  -31.7620  -14.7450   19.9970 O   0  0  0  0  0  0  0  0  0  0  0  0
  -29.9250  -15.4680   21.0830 N   0  0  0  0  0  0  0  0  0  0  0  0
  -29.0510  -15.1600   21.4810 H   0  0  0  0  0  0  0  0  0  0  0  0
  -25.2200  -13.8900   20.4540 C   0  0  0  0  0  0  0  0  0  0  0  0
  -24.1490  -13.1190   20.8180 C   0  0  0  0  0  0  0  0  0  0  0  0
  -24.6160  -11.7690   20.8020 C   0  0  0  0  0  0  0  0  0  0  0  0
  -26.2710  -13.0120   20.2420 N   0  0  0  0  0  0  0  0  0  0  0  0
  -25.9090  -11.7300   20.5060 N   0  0  0  0  0  0  0  0  0  0  0  0
  -23.8940  -10.5060   20.9970 C   0  0  0  0  0  0  0  0  0  0  0  0
  -24.3160   -9.5560   21.9530 C   0  0  0  0  0  3  0  0  0  0  0  0
  -23.5980   -8.3550   22.1330 C   0  0  0  0  0  3  0  0  0  0  0  0
  -22.4430   -8.0940   21.3570 C   0  0  0  0  0  0  0  0  0  0  0  0
  -22.0400   -9.0340   20.3920 C   0  0  0  0  0  3  0  0  0  0  0  0
  -22.7590  -10.2270   20.2100 C   0  0  0  0  0  3  0  0  0  0  0  0
  -21.7000   -6.9420   21.4430 O   0  0  0  0  0  0  0  0  0  0  0  0
  -21.6250   -6.2170   22.6050 C   0  0  0  0  0  0  0  0  0  0  0  0
  -21.1480   -6.7820   23.8080 C   0  0  0  0  0  3  0  0  0  0  0  0
  -21.0270   -5.9810   24.9610 C   0  0  0  0  0  3  0  0  0  0  0  0
  -21.3730   -4.6180   24.9120 C   0  0  0  0  0  0  0  0  0  0  0  0
  -21.8420   -4.0520   23.7130 C   0  0  0  0  0  3  0  0  0  0  0  0
  -21.9660   -4.8500   22.5620 C   0  0  0  0  0  0  0  0  0  0  0  0
  -22.3990   -4.2960   21.4030 F   0  0  0  0  0  0  0  0  0  0  0  0
  -21.2480   -3.8460   26.0170 F   0  0  0  0  0  0  0  0  0  0  0  0
  -22.7470  -13.5930   21.0700 C   0  0  0  0  0  0  0  0  0  0  0  0
  -22.0090  -12.8980   21.9290 N   0  0  0  0  0  0  0  0  0  0  0  0
  -22.3100  -14.6140   20.5380 O   0  0  0  0  0  0  0  0  0  0  0  0
  -22.3730  -12.0760   22.3860 H   0  0  0  0  0  0  0  0  0  0  0  0
  -21.0670  -13.1970   22.1380 H   0  0  0  0  0  0  0  0  0  0  0  0
  -25.3830  -15.2610   20.2670 N   0  0  0  0  0  0  0  0  0  0  0  0
  -24.6140  -15.9140   20.3650 H   0  0  0  0  0  0  0  0  0  0  0  0
  -26.2220  -15.6940   19.9020 H   0  0  0  0  0  0  0  0  0  0  0  0
  1  3  2  0
  1  2  1  0
  2  5  2  0
  3  6  1  0
  5  4  1  0
  5  7  1  0
  6 53  1  0
  6  4  2  0
  8  7  2  0
  8  9  1  0
  9 10  2  0
 11  9  1  0
 12 14  1  0
 12 11  1  0
 13 24  2  0
 14 19  1  0
 15 23  1  0
 15 25  1  0
 16 22  1  0
 16 18  1  0
 17 23  1  0
 18 17  1  0
 19 18  2  0
 20 21  1  0
 20 14  2  0
 21 16  2  0
 22 15  1  0
 23 13  1  0
 25 27  2  0
 26 25  1  0
 28 26  1  0
 29 38  2  0
 29 34  1  0
 30 26  1  0
 30 34  1  0
 31 30  1  0
 32 33  1  0
 32 31  1  0
 33 29  1  0
 34 35  2  0
 35 36  1  0
 37 36  2  0
 38 37  1  0
 39 13  1  0
 39 40  1  0
 39 49  1  0
 40 43  1  0
 41 45  1  0
 41 40  1  0
 42 41  2  0
 45 44  1  0
 47 45  1  0
 47 48  1  0
 47 46  1  0
 49 52  1  1
 49 50  1  0
 51 49  1  0
 53 55  1  0
 55 64  1  0
 55 54  1  0
 56 64  1  0
 57 62  1  0
 58 59  1  0
 58 57  1  0
 60 59  1  0
 60 69  1  0
 60 61  1  0
 62 56  1  0
 62 61  1  0
 63 56  2  0
 64 65  1  0
 66 67  2  0
 67 86  1  0
 68 67  1  0
 68 71  1  0
 69 66  1  0
 69 70  1  0
 70 68  2  0
 71 72  1  0
 72 73  2  0
 74 77  1  0
 74 73  1  0
 75 74  2  0
 76 75  1  0
 76 71  2  0
 77 78  1  0
 78 79  1  0
 79 80  2  0
 81 80  1  0
 81 85  1  0
 82 81  2  0
 83 78  2  0
 83 82  1  0
 84 83  1  0
 86 87  1  0
 87 90  1  0
 87 89  1  0
 88 86  2  0
 91 92  1  0
 91 66  1  0
 93 91  1  0
M  ISO  4  11 101  12 101  56 100  64 100
M  END
>  <TORSDO>  (87) 
F 21

>  <SCORE>  (87) 
-13.702

>  <name>  (87) 
86

>  <ligand_id>  (87) 
86

>  <original_smiles>  (87) 
[H]C(C(=O)C([H])([H])Oc1c([H])c([H])c2c(c1[H])C([H])([H])N(C(=O)C([H])(N([H])C(=O)C([H])(N([H])C([H])([H])[H])C([H])([H])[H])C(C([H])([H])[H])(C([H])([H])[H])C([H])([H])[H])C([H])(C(=O)N([H])C1([H])c3c([H])c([H])c([H])c([H])c3C([H])([H])C([H])([H])C1([H])[H])C2([H])[H])=C([H])c1c([H])c([H])c([H])c(C([H])([H])C([H])(N([H])C(=O)N2C([H])([H])C([H])([H])C([H])([H])C([H])(n3nc(-c4c([H])c([H])c(Oc5c([H])c([H])c(F)c([H])c5F)c([H])c4[H])c(C(=O)N([H])[H])c3N([H])[H])C2([H])[H])C([H])([H])[H])c1[H]

>  <smiles>  (87) 
[H]C(C(=O)C([H])([H])Oc1c([H])c([H])c2c(c1[H])C([H])([H])N(C(=O)C([H])(N([H])C(=O)C([H])(N([H])C([H])([H])[H])C([H])([H])[H])C(C([H])([H])[H])(C([H])([H])[H])C([H])([H])[H])C([H])(C(=O)N([H])C1([H])c3c([H])c([H])c([H])c([H])c3C([H])([H])C([H])([H])C1([H])[H])C2([H])[H])=C([H])c1c([H])c([H])c([H])c(C([H])([H])C([H])(N([H])C(=O)N2C([H])([H])C([H])([H])C([H])([H])C([H])(n3nc(-c4c([H])c([H])c(Oc5c([H])c([H])c(F)c([H])c5F)c([H])c4[H])c(C(=O)N([H])[H])c3N([H])[H])C2([H])[H])C([H])([H])[H])c1[H]

$$$$
87:0:0
     RDKit          3D

 90 98  0  0  1  0  0  0  0  0999 V2000
  -31.2770  -22.8820   19.7730 C   0  0  0  0  0  2  0  0  0  0  0  0
  -30.4360  -24.1760   19.9180 C   0  0  0  0  0  2  0  0  0  0  0  0
  -30.4630  -21.6790   19.2480 C   0  0  0  0  0  2  0  0  0  0  0  0
  -28.8170  -22.5420   21.0120 C   0  0  0  0  0  2  0  0  0  0  0  0
  -28.9430  -23.9320   20.2390 C   0  0  0  0  0  3  0  0  0  0  0  0
  -29.3090  -21.2600   20.1980 C   0  0  0  0  0  3  0  0  0  0  0  0
  -29.6910  -20.0280   21.0080 N   0  0  0  0  0  4  0  0  0  0  0  0
  -29.2140  -20.0790   21.8940 H   0  0  0  0  0  0  0  0  0  0  0  0
  -30.6770  -20.0860   21.2060 H   0  0  0  0  0  0  0  0  0  0  0  0
  -29.3860  -18.6510   20.4360 C   0  0  0  0  0  2  0  0  0  0  0  0
  -30.3190  -17.4270   20.8740 C   0  0  0  0  0  2  0  0  0  0  0  0
  -29.6950  -15.9560   20.8080 C   0  0  0  0  0  2  0  0  0  0  0  0
  -30.5640  -14.6790   20.4380 C   0  0  0  0  0  0  0  0  0  0  0  0
  -30.3780  -12.4500   19.3330 C   0  0  0  0  0  2  0  0  0  0  0  0
  -29.4300  -12.5910   18.1190 C   0  0  0  0  0  2  0  0  0  0  0  0
  -27.9590  -12.4180   18.5470 C   0  0  0  0  0  2  0  0  0  0  0  0
  -27.5970  -13.2660   19.7940 C   0  0  0  0  0  3  0  0  0  0  0  0
  -28.6560  -13.0950   20.9040 C   0  0  0  0  0  2  0  0  0  0  0  0
  -29.9680  -13.4460   20.3430 N   0  0  0  0  0  0  0  0  0  0  0  0
  -31.7300  -14.8380   20.0630 O   0  0  0  0  0  0  0  0  0  0  0  0
  -25.2010  -13.8590   20.5090 C   0  0  0  0  0  0  0  0  0  0  0  0
  -24.1380  -13.0830   20.8810 C   0  0  0  0  0  0  0  0  0  0  0  0
  -24.6070  -11.7340   20.8590 C   0  0  0  0  0  0  0  0  0  0  0  0
  -26.2490  -12.9820   20.2790 N   0  0  0  0  0  0  0  0  0  0  0  0
  -25.8980  -11.7000   20.5510 N   0  0  0  0  0  0  0  0  0  0  0  0
  -23.8900  -10.4680   21.0560 C   0  0  0  0  0  0  0  0  0  0  0  0
  -24.3360   -9.5020   21.9860 C   0  0  0  0  0  3  0  0  0  0  0  0
  -23.6160   -8.3020   22.1680 C   0  0  0  0  0  3  0  0  0  0  0  0
  -22.4380   -8.0590   21.4210 C   0  0  0  0  0  0  0  0  0  0  0  0
  -22.0150   -9.0140   20.4810 C   0  0  0  0  0  3  0  0  0  0  0  0
  -22.7350  -10.2050   20.2960 C   0  0  0  0  0  3  0  0  0  0  0  0
  -21.6930   -6.9080   21.5120 O   0  0  0  0  0  0  0  0  0  0  0  0
  -21.6680   -6.1570   22.6590 C   0  0  0  0  0  0  0  0  0  0  0  0
  -21.2650   -6.7020   23.8980 C   0  0  0  0  0  3  0  0  0  0  0  0
  -21.1840   -5.8770   25.0380 C   0  0  0  0  0  3  0  0  0  0  0  0
  -21.4980   -4.5080   24.9400 C   0  0  0  0  0  0  0  0  0  0  0  0
  -21.9000   -3.9630   23.7070 C   0  0  0  0  0  3  0  0  0  0  0  0
  -21.9790   -4.7850   22.5700 C   0  0  0  0  0  0  0  0  0  0  0  0
  -22.3420   -4.2500   21.3790 F   0  0  0  0  0  0  0  0  0  0  0  0
  -21.4160   -3.7130   26.0320 F   0  0  0  0  0  0  0  0  0  0  0  0
  -22.7360  -13.5520   21.1480 C   0  0  0  0  0  0  0  0  0  0  0  0
  -22.0110  -12.8560   22.0170 N   0  0  0  0  0  0  0  0  0  0  0  0
  -22.2910  -14.5720   20.6230 O   0  0  0  0  0  0  0  0  0  0  0  0
  -22.3840  -12.0290   22.4620 H   0  0  0  0  0  0  0  0  0  0  0  0
  -21.0720  -13.1560   22.2420 H   0  0  0  0  0  0  0  0  0  0  0  0
  -25.3570  -15.2310   20.3240 N   0  0  0  0  0  0  0  0  0  0  0  0
  -24.5890  -15.8810   20.4460 H   0  0  0  0  0  0  0  0  0  0  0  0
  -26.2040  -15.6790   19.9980 H   0  0  0  0  0  0  0  0  0  0  0  0
  -28.2680  -25.2100   20.9160 C   0  0  0  0  0  2  0  0  0  0  0  0
  -28.4070  -26.5390   20.2830 O   0  0  0  0  0  0  0  0  0  0  0  0
  -24.6200  -31.9050   23.2690 C   0  0  0  0  0  0  0  0  0  0  0  0
  -27.2770  -27.3610   20.2640 C   0  0  0  0  0  0  0  0  0  0  0  0
  -23.4280  -30.4870   21.6370 C   0  0  0  0  0  3  0  0  0  0  0  0
  -24.8940  -28.9320   20.2300 C   0  0  0  0  0  0  0  0  0  0  0  0
  -25.9650  -30.8230   21.4620 C   0  0  0  0  0  2  0  0  0  0  0  0
  -26.0570  -29.4430   20.8240 C   0  0  0  0  0  0  0  0  0  0  0  0
  -27.2530  -28.6710   20.8260 C   0  0  0  0  0  3  0  0  0  0  0  0
  -26.0970  -26.8930   19.6490 C   0  0  0  0  0  3  0  0  0  0  0  0
  -24.9140  -27.6600   19.6340 C   0  0  0  0  0  3  0  0  0  0  0  0
  -23.6520  -29.7980   20.2640 C   0  0  0  0  0  2  0  0  0  0  0  0
  -24.6900  -31.0850   22.1820 N   0  0  0  0  0  0  0  0  0  0  0  0
  -23.5290  -32.2050   23.7720 O   0  0  0  0  0  0  0  0  0  0  0  0
  -22.7670  -29.4730   22.6010 C   0  0  0  0  0  0  0  0  0  0  0  0
  -21.4420  -29.2920   22.4720 N   0  0  0  0  0  0  0  0  0  0  0  0
  -23.4450  -28.8520   23.4230 O   0  0  0  0  0  0  0  0  0  0  0  0
  -20.9540  -29.8460   21.7820 H   0  0  0  0  0  0  0  0  0  0  0  0
  -18.0660  -28.0910   22.9650 C   0  0  0  0  0  0  0  0  0  0  0  0
  -20.6230  -28.3540   23.2410 C   0  0  0  0  0  3  0  0  0  0  0  0
  -20.7280  -26.9220   22.6680 C   0  0  0  0  0  2  0  0  0  0  0  0
  -19.6290  -26.5960   21.6510 C   0  0  0  0  0  2  0  0  0  0  0  0
  -18.2460  -26.7400   22.2910 C   0  0  0  0  0  2  0  0  0  0  0  0
  -19.1820  -28.8550   23.3970 C   0  0  0  0  0  0  0  0  0  0  0  0
  -18.9600  -30.1180   23.9870 C   0  0  0  0  0  3  0  0  0  0  0  0
  -17.6550  -30.6190   24.1470 C   0  0  0  0  0  3  0  0  0  0  0  0
  -16.5520  -29.8520   23.7320 C   0  0  0  0  0  3  0  0  0  0  0  0
  -16.7590  -28.5900   23.1460 C   0  0  0  0  0  3  0  0  0  0  0  0
  -25.9010  -32.5330   23.9070 C   0  0  0  0  0  3  0  0  0  0  0  0
  -25.5940  -33.9350   24.2240 N   0  0  0  0  0  0  0  0  0  0  0  0
  -25.9310  -34.9790   23.4560 C   0  0  0  0  0  0  0  0  0  0  0  0
  -26.6060  -34.8640   22.4290 O   0  0  0  0  0  0  0  0  0  0  0  0
  -24.9970  -34.1000   25.0220 H   0  0  0  0  0  0  0  0  0  0  0  0
  -24.2050  -36.7670   23.0780 C   0  0  0  0  0  1  0  0  0  0  0  0
  -25.4440  -36.3720   23.8970 C   0  0  0  0  0  3  0  0  0  0  0  0
  -27.5780  -37.2640   24.7210 C   0  0  0  0  0  1  0  0  0  0  0  0
  -26.4790  -37.4230   23.7740 N   0  0  0  0  0  0  0  0  0  0  0  0
  -26.0740  -38.3450   23.9090 H   0  0  0  0  0  0  0  0  0  0  0  0
  -26.4010  -31.7700   25.1950 C   0  0  1  0  0  0  0  0  0  0  0  0
  -25.2960  -31.5470   26.2530 C   0  0  0  0  0  1  0  0  0  0  0  0
  -26.9850  -30.3870   24.8240 C   0  0  0  0  0  1  0  0  0  0  0  0
  -27.5490  -32.5660   25.8610 C   0  0  0  0  0  1  0  0  0  0  0  0
  1  2  1  0
  2  5  1  0
  3  1  1  0
  3  6  1  0
  5 49  1  0
  5  4  1  0
  6  7  1  0
  6  4  1  0
  7  9  1  0
  7  8  1  0
 10 11  1  0
 10  7  1  0
 12 11  1  0
 13 12  1  0
 14 19  1  0
 15 16  1  0
 15 14  1  0
 17 16  1  0
 17 24  1  0
 17 18  1  0
 19 13  1  0
 19 18  1  0
 20 13  2  0
 21 22  2  0
 22 41  1  0
 23 22  1  0
 23 26  1  0
 24 21  1  0
 24 25  1  0
 25 23  2  0
 26 27  1  0
 27 28  2  0
 29 32  1  0
 29 28  1  0
 30 29  2  0
 31 30  1  0
 31 26  2  0
 32 33  1  0
 33 34  1  0
 34 35  2  0
 36 35  1  0
 36 40  1  0
 37 36  2  0
 38 33  2  0
 38 37  1  0
 39 38  1  0
 41 42  1  0
 42 45  1  0
 42 44  1  0
 43 41  2  0
 46 47  1  0
 46 21  1  0
 48 46  1  0
 50 49  1  0
 51 62  2  0
 52 50  1  0
 52 57  1  0
 53 61  1  0
 53 63  1  0
 54 60  1  0
 54 56  1  0
 55 61  1  0
 56 57  2  0
 56 55  1  0
 58 52  2  0
 59 58  1  0
 59 54  2  0
 60 53  1  0
 61 51  1  0
 63 65  2  0
 64 63  1  0
 66 64  1  0
 67 76  2  0
 67 72  1  0
 68 64  1  0
 68 72  1  0
 69 68  1  0
 70 71  1  0
 70 69  1  0
 71 67  1  0
 72 73  2  0
 73 74  1  0
 75 74  2  0
 76 75  1  0
 77 51  1  0
 77 78  1  0
 77 87  1  0
 78 81  1  0
 79 83  1  0
 79 78  1  0
 80 79  2  0
 83 82  1  0
 85 83  1  0
 85 86  1  0
 85 84  1  0
 87 90  1  1
 87 88  1  0
 89 87  1  0
M  ISO  4  12 100  13 100  49 101  50 101
M  END
>  <TORSDO>  (88) 
F 21

>  <SCORE>  (88) 
-13.511

>  <name>  (88) 
87

>  <ligand_id>  (88) 
87

>  <original_smiles>  (88) 
[H]c1c([H])c([H])c2c(c1[H])C([H])([H])C([H])([H])C([H])([H])C2([H])N([H])C(=O)C1([H])N(C(=O)C([H])(N([H])C(=O)C([H])(N([H])C([H])([H])[H])C([H])([H])[H])C(C([H])([H])[H])(C([H])([H])[H])C([H])([H])[H])C([H])([H])c2c([H])c(OC([H])([H])C3([H])C([H])([H])C([H])([H])C([H])([H])C([H])([N+]([H])([H])C([H])([H])C([H])([H])C([H])([H])C(=O)N4C([H])([H])C([H])([H])C([H])([H])C([H])(n5nc(-c6c([H])c([H])c(Oc7c([H])c([H])c(F)c([H])c7F)c([H])c6[H])c(C(=O)N([H])[H])c5N([H])[H])C4([H])[H])C3([H])[H])c([H])c([H])c2C1([H])[H]

>  <smiles>  (88) 
[H]c1c([H])c([H])c2c(c1[H])C([H])([H])C([H])([H])C([H])([H])C2([H])N([H])C(=O)C1([H])N(C(=O)C([H])(N([H])C(=O)C([H])(N([H])C([H])([H])[H])C([H])([H])[H])C(C([H])([H])[H])(C([H])([H])[H])C([H])([H])[H])C([H])([H])c2c([H])c(OC([H])([H])C3([H])C([H])([H])C([H])([H])C([H])([H])C([H])([N+]([H])([H])C([H])([H])C([H])([H])C([H])([H])C(=O)N4C([H])([H])C([H])([H])C([H])([H])C([H])(n5nc(-c6c([H])c([H])c(Oc7c([H])c([H])c(F)c([H])c7F)c([H])c6[H])c(C(=O)N([H])[H])c5N([H])[H])C4([H])[H])C3([H])[H])c([H])c([H])c2C1([H])[H]

$$$$
88:0:0
     RDKit          3D

 97105  0  0  1  0  0  0  0  0999 V2000
  -32.4930  -23.1060   18.3820 C   0  0  0  0  0  3  0  0  0  0  0  0
  -32.4950  -21.8570   19.0130 C   0  0  0  0  0  3  0  0  0  0  0  0
  -31.5770  -24.0940   18.7770 C   0  0  0  0  0  0  0  0  0  0  0  0
  -31.5300  -21.5250   19.9890 C   0  0  0  0  0  0  0  0  0  0  0  0
  -30.6270  -23.8160   19.7960 C   0  0  0  0  0  0  0  0  0  0  0  0
  -30.5190  -22.4860   20.3200 C   0  0  0  0  0  0  0  0  0  0  0  0
  -31.6900  -25.4590   18.1110 C   0  0  0  0  0  1  0  0  0  0  0  0
  -28.0510  -21.8580   20.3740 C   0  0  0  0  0  1  0  0  0  0  0  0
  -29.3190  -22.1220   21.2030 C   0  0  0  0  0  2  0  0  0  0  0  0
  -32.1090  -20.3760   22.1940 C   0  0  0  0  0  1  0  0  0  0  0  0
  -31.7370  -20.1780   20.7070 C   0  0  0  0  0  3  0  0  0  0  0  0
  -30.6520  -19.1990   20.4570 N   0  0  0  0  0  4  0  0  0  0  0  0
  -29.7870  -19.5630   20.8180 H   0  0  0  0  0  0  0  0  0  0  0  0
  -30.5580  -19.1320   19.4550 H   0  0  0  0  0  0  0  0  0  0  0  0
  -30.8720  -17.8280   20.9950 C   0  0  0  0  0  2  0  0  0  0  0  0
  -29.7950  -16.8460   20.4810 C   0  0  0  0  0  2  0  0  0  0  0  0
  -30.6220  -14.4930   20.5130 C   0  0  0  0  0  0  0  0  0  0  0  0
  -30.3630  -12.3410   19.3490 C   0  0  0  0  0  2  0  0  0  0  0  0
  -29.4250  -12.5720   18.1440 C   0  0  0  0  0  2  0  0  0  0  0  0
  -27.9450  -12.4310   18.5590 C   0  0  0  0  0  2  0  0  0  0  0  0
  -27.6050  -13.2430   19.8370 C   0  0  0  0  0  3  0  0  0  0  0  0
  -28.6520  -12.9800   20.9450 C   0  0  0  0  0  2  0  0  0  0  0  0
  -29.9870  -13.2950   20.4020 N   0  0  0  0  0  0  0  0  0  0  0  0
  -31.7240  -14.7300   20.0100 O   0  0  0  0  0  0  0  0  0  0  0  0
  -29.8590  -15.4770   21.0100 N   0  0  0  0  0  0  0  0  0  0  0  0
  -29.0210  -15.1580   21.4750 H   0  0  0  0  0  0  0  0  0  0  0  0
  -25.1940  -13.8510   20.5120 C   0  0  0  0  0  0  0  0  0  0  0  0
  -24.1250  -13.0790   20.8780 C   0  0  0  0  0  0  0  0  0  0  0  0
  -24.5900  -11.7280   20.8620 C   0  0  0  0  0  0  0  0  0  0  0  0
  -26.2440  -12.9710   20.3000 N   0  0  0  0  0  0  0  0  0  0  0  0
  -25.8830  -11.6900   20.5650 N   0  0  0  0  0  0  0  0  0  0  0  0
  -23.8670  -10.4650   21.0540 C   0  0  0  0  0  0  0  0  0  0  0  0
  -24.3040   -9.5010   21.9900 C   0  0  0  0  0  3  0  0  0  0  0  0
  -23.5830   -8.3010   22.1700 C   0  0  0  0  0  3  0  0  0  0  0  0
  -22.4100   -8.0590   21.4160 C   0  0  0  0  0  0  0  0  0  0  0  0
  -21.9940   -9.0110   20.4680 C   0  0  0  0  0  3  0  0  0  0  0  0
  -22.7160  -10.2020   20.2860 C   0  0  0  0  0  3  0  0  0  0  0  0
  -21.6600   -6.9120   21.5040 O   0  0  0  0  0  0  0  0  0  0  0  0
  -21.6200   -6.1660   22.6550 C   0  0  0  0  0  0  0  0  0  0  0  0
  -21.1980   -6.7160   23.8860 C   0  0  0  0  0  3  0  0  0  0  0  0
  -21.1050   -5.8970   25.0280 C   0  0  0  0  0  3  0  0  0  0  0  0
  -21.4230   -4.5280   24.9420 C   0  0  0  0  0  0  0  0  0  0  0  0
  -21.8390   -3.9780   23.7160 C   0  0  0  0  0  3  0  0  0  0  0  0
  -21.9330   -4.7950   22.5760 C   0  0  0  0  0  0  0  0  0  0  0  0
  -22.3130   -4.2540   21.3920 F   0  0  0  0  0  0  0  0  0  0  0  0
  -21.3270   -3.7380   26.0370 F   0  0  0  0  0  0  0  0  0  0  0  0
  -22.7240  -13.5530   21.1370 C   0  0  0  0  0  0  0  0  0  0  0  0
  -21.9910  -12.8590   22.0000 N   0  0  0  0  0  0  0  0  0  0  0  0
  -22.2850  -14.5740   20.6080 O   0  0  0  0  0  0  0  0  0  0  0  0
  -22.3600  -12.0340   22.4510 H   0  0  0  0  0  0  0  0  0  0  0  0
  -21.0500  -13.1550   22.2120 H   0  0  0  0  0  0  0  0  0  0  0  0
  -25.3550  -15.2200   20.3240 N   0  0  0  0  0  0  0  0  0  0  0  0
  -24.5830  -15.8710   20.4120 H   0  0  0  0  0  0  0  0  0  0  0  0
  -26.2030  -15.6580   19.9870 H   0  0  0  0  0  0  0  0  0  0  0  0
  -29.8860  -25.0000   20.4410 C   0  0  0  0  0  2  0  0  0  0  0  0
  -28.5360  -25.4340   19.8410 C   0  0  0  0  0  2  0  0  0  0  0  0
  -28.4370  -26.8200   20.1570 O   0  0  0  0  0  0  0  0  0  0  0  0
  -24.5960  -31.8910   23.2460 C   0  0  0  0  0  0  0  0  0  0  0  0
  -27.2240  -27.4670   20.1450 C   0  0  0  0  0  0  0  0  0  0  0  0
  -23.3770  -30.4900   21.6100 C   0  0  0  0  0  3  0  0  0  0  0  0
  -24.8180  -28.9490   20.1760 C   0  0  0  0  0  0  0  0  0  0  0  0
  -25.9000  -30.8510   21.3970 C   0  0  0  0  0  2  0  0  0  0  0  0
  -25.9740  -29.4820   20.7550 C   0  0  0  0  0  0  0  0  0  0  0  0
  -27.1760  -28.7490   20.7320 C   0  0  0  0  0  3  0  0  0  0  0  0
  -26.0500  -26.9330   19.5670 C   0  0  0  0  0  3  0  0  0  0  0  0
  -24.8490  -27.6740   19.5770 C   0  0  0  0  0  3  0  0  0  0  0  0
  -23.5730  -29.8070   20.2290 C   0  0  0  0  0  2  0  0  0  0  0  0
  -24.6430  -31.0890   22.1450 N   0  0  0  0  0  0  0  0  0  0  0  0
  -23.5140  -32.1810   23.7770 O   0  0  0  0  0  0  0  0  0  0  0  0
  -22.7320  -29.4680   22.5730 C   0  0  0  0  0  0  0  0  0  0  0  0
  -21.4090  -29.2780   22.4450 N   0  0  0  0  0  0  0  0  0  0  0  0
  -23.4190  -28.8460   23.3860 O   0  0  0  0  0  0  0  0  0  0  0  0
  -20.9160  -29.8390   21.7650 H   0  0  0  0  0  0  0  0  0  0  0  0
  -18.0420  -28.0640   22.9340 C   0  0  0  0  0  0  0  0  0  0  0  0
  -20.5980  -28.3370   23.2140 C   0  0  0  0  0  3  0  0  0  0  0  0
  -20.7080  -26.9030   22.6440 C   0  0  0  0  0  2  0  0  0  0  0  0
  -19.6120  -26.5720   21.6270 C   0  0  0  0  0  2  0  0  0  0  0  0
  -18.2280  -26.7120   22.2650 C   0  0  0  0  0  2  0  0  0  0  0  0
  -19.1550  -28.8310   23.3660 C   0  0  0  0  0  0  0  0  0  0  0  0
  -18.9300  -30.0970   23.9490 C   0  0  0  0  0  3  0  0  0  0  0  0
  -17.6230  -30.5930   24.1100 C   0  0  0  0  0  3  0  0  0  0  0  0
  -16.5230  -29.8230   23.6920 C   0  0  0  0  0  3  0  0  0  0  0  0
  -16.7330  -28.5610   23.1080 C   0  0  0  0  0  3  0  0  0  0  0  0
  -25.8890  -32.5090   23.8690 C   0  0  0  0  0  3  0  0  0  0  0  0
  -25.5890  -33.9070   24.2050 N   0  0  0  0  0  0  0  0  0  0  0  0
  -25.9170  -34.9580   23.4430 C   0  0  0  0  0  0  0  0  0  0  0  0
  -26.5770  -34.8520   22.4060 O   0  0  0  0  0  0  0  0  0  0  0  0
  -25.0050  -34.0650   25.0120 H   0  0  0  0  0  0  0  0  0  0  0  0
  -24.1870  -36.7510   23.1030 C   0  0  0  0  0  1  0  0  0  0  0  0
  -25.4350  -36.3470   23.9030 C   0  0  0  0  0  3  0  0  0  0  0  0
  -27.5770  -37.2290   24.7100 C   0  0  0  0  0  1  0  0  0  0  0  0
  -26.4660  -37.4000   23.7780 N   0  0  0  0  0  0  0  0  0  0  0  0
  -26.0620  -38.3200   23.9290 H   0  0  0  0  0  0  0  0  0  0  0  0
  -26.4070  -31.7310   25.1420 C   0  0  1  0  0  0  0  0  0  0  0  0
  -25.3190  -31.4990   26.2130 C   0  0  0  0  0  1  0  0  0  0  0  0
  -26.9830  -30.3530   24.7400 C   0  0  0  0  0  1  0  0  0  0  0  0
  -27.5610  -32.5200   25.8020 C   0  0  0  0  0  1  0  0  0  0  0  0
  1  3  2  0
  1  2  1  0
  2  4  2  0
  3  5  1  0
  4  6  1  0
  4 11  1  0
  5  6  2  0
  5 55  1  0
  6  9  1  0
  7  3  1  0
  8  9  1  0
 11 10  1  0
 12 11  1  0
 12 13  1  0
 12 15  1  0
 14 12  1  0
 16 15  1  0
 16 25  1  0
 17 25  1  0
 18 23  1  0
 19 20  1  0
 19 18  1  0
 21 20  1  0
 21 30  1  0
 21 22  1  0
 23 17  1  0
 23 22  1  0
 24 17  2  0
 25 26  1  0
 27 28  2  0
 28 47  1  0
 29 28  1  0
 29 32  1  0
 30 27  1  0
 30 31  1  0
 31 29  2  0
 32 33  1  0
 33 34  2  0
 35 38  1  0
 35 34  1  0
 36 35  2  0
 37 36  1  0
 37 32  2  0
 38 39  1  0
 39 40  1  0
 40 41  2  0
 42 41  1  0
 42 46  1  0
 43 42  2  0
 44 39  2  0
 44 43  1  0
 45 44  1  0
 47 48  1  0
 48 51  1  0
 48 50  1  0
 49 47  2  0
 52 53  1  0
 52 27  1  0
 54 52  1  0
 56 57  1  0
 56 55  1  0
 58 69  2  0
 59 57  1  0
 59 64  1  0
 60 68  1  0
 60 70  1  0
 61 67  1  0
 61 63  1  0
 62 68  1  0
 63 62  1  0
 64 63  2  0
 65 66  1  0
 65 59  2  0
 66 61  2  0
 67 60  1  0
 68 58  1  0
 70 72  2  0
 71 70  1  0
 73 71  1  0
 74 83  2  0
 74 79  1  0
 75 71  1  0
 75 79  1  0
 76 75  1  0
 77 78  1  0
 77 76  1  0
 78 74  1  0
 79 80  2  0
 80 81  1  0
 82 81  2  0
 83 82  1  0
 84 58  1  0
 84 85  1  0
 84 94  1  0
 85 88  1  0
 86 90  1  0
 86 85  1  0
 87 86  2  0
 90 89  1  0
 92 90  1  0
 92 93  1  0
 92 91  1  0
 94 97  1  1
 94 95  1  0
 96 94  1  0
M  ISO  4  17 100  25 100  56 101  57 101
M  END
>  <TORSDO>  (89) 
F 23

>  <SCORE>  (89) 
-12.986

>  <name>  (89) 
88

>  <ligand_id>  (89) 
88

>  <original_smiles>  (89) 
[H]c1c([H])c([H])c2c(c1[H])C([H])([H])C([H])([H])C([H])([H])C2([H])N([H])C(=O)C1([H])N(C(=O)C([H])(N([H])C(=O)C([H])(N([H])C([H])([H])[H])C([H])([H])[H])C(C([H])([H])[H])(C([H])([H])[H])C([H])([H])[H])C([H])([H])c2c([H])c(OC([H])([H])C([H])([H])c3c(C([H])([H])[H])c([H])c([H])c(C([H])(C([H])([H])[H])[N+]([H])([H])C([H])([H])C([H])([H])N([H])C(=O)N4C([H])([H])C([H])([H])C([H])([H])C([H])(n5nc(-c6c([H])c([H])c(Oc7c([H])c([H])c(F)c([H])c7F)c([H])c6[H])c(C(=O)N([H])[H])c5N([H])[H])C4([H])[H])c3C([H])([H])C([H])([H])[H])c([H])c([H])c2C1([H])[H]

>  <smiles>  (89) 
[H]c1c([H])c([H])c2c(c1[H])C([H])([H])C([H])([H])C([H])([H])C2([H])N([H])C(=O)C1([H])N(C(=O)C([H])(N([H])C(=O)C([H])(N([H])C([H])([H])[H])C([H])([H])[H])C(C([H])([H])[H])(C([H])([H])[H])C([H])([H])[H])C([H])([H])c2c([H])c(OC([H])([H])C([H])([H])c3c(C([H])([H])[H])c([H])c([H])c(C([H])(C([H])([H])[H])[N+]([H])([H])C([H])([H])C([H])([H])N([H])C(=O)N4C([H])([H])C([H])([H])C([H])([H])C([H])(n5nc(-c6c([H])c([H])c(Oc7c([H])c([H])c(F)c([H])c7F)c([H])c6[H])c(C(=O)N([H])[H])c5N([H])[H])C4([H])[H])c3C([H])([H])C([H])([H])[H])c([H])c([H])c2C1([H])[H]

$$$$
89:0:0
     RDKit          3D

 90 98  0  0  1  0  0  0  0  0999 V2000
  -30.1880  -23.5890   19.8680 C   0  0  0  0  0  2  0  0  0  0  0  0
  -27.7650  -22.8700   19.9860 C   0  0  0  0  0  2  0  0  0  0  0  0
  -29.9100  -24.6750   20.9550 C   0  0  0  0  0  2  0  0  0  0  0  0
  -27.4790  -24.1010   20.9220 C   0  0  0  0  0  2  0  0  0  0  0  0
  -29.2330  -22.3500   19.8310 C   0  0  0  0  0  3  0  0  0  0  0  0
  -28.4860  -25.3040   20.9630 C   0  0  0  0  0  3  0  0  0  0  0  0
  -29.7260  -21.0130   20.5500 C   0  0  0  0  0  0  0  0  0  0  0  0
  -29.3520  -19.7880   20.0630 N   0  0  0  0  0  0  0  0  0  0  0  0
  -30.5630  -21.0950   21.4490 O   0  0  0  0  0  0  0  0  0  0  0  0
  -28.5720  -19.8410   19.4200 H   0  0  0  0  0  0  0  0  0  0  0  0
  -30.1300  -18.4920   19.9370 C   0  0  0  0  0  2  0  0  0  0  0  0
  -30.2120  -17.4290   21.1170 C   0  0  0  0  0  2  0  0  0  0  0  0
  -29.6820  -15.9230   20.9460 C   0  0  0  0  0  2  0  0  0  0  0  0
  -30.5540  -14.6790   20.4680 C   0  0  0  0  0  0  0  0  0  0  0  0
  -30.3880  -12.4380   19.3670 C   0  0  0  0  0  2  0  0  0  0  0  0
  -29.4440  -12.5610   18.1480 C   0  0  0  0  0  2  0  0  0  0  0  0
  -27.9670  -12.3900   18.5640 C   0  0  0  0  0  2  0  0  0  0  0  0
  -27.6010  -13.2490   19.8020 C   0  0  0  0  0  3  0  0  0  0  0  0
  -28.6530  -13.0820   20.9200 C   0  0  0  0  0  2  0  0  0  0  0  0
  -29.9670  -13.4400   20.3660 N   0  0  0  0  0  0  0  0  0  0  0  0
  -31.7090  -14.8570   20.0680 O   0  0  0  0  0  0  0  0  0  0  0  0
  -25.2060  -13.8660   20.5010 C   0  0  0  0  0  0  0  0  0  0  0  0
  -24.1340  -13.1000   20.8700 C   0  0  0  0  0  0  0  0  0  0  0  0
  -24.5920  -11.7480   20.8560 C   0  0  0  0  0  0  0  0  0  0  0  0
  -26.2490  -12.9780   20.2800 N   0  0  0  0  0  0  0  0  0  0  0  0
  -25.8840  -11.6990   20.5540 N   0  0  0  0  0  0  0  0  0  0  0  0
  -23.8610  -10.4900   21.0550 C   0  0  0  0  0  0  0  0  0  0  0  0
  -24.3010   -9.5180   21.9800 C   0  0  0  0  0  3  0  0  0  0  0  0
  -23.5710   -8.3240   22.1660 C   0  0  0  0  0  3  0  0  0  0  0  0
  -22.3880   -8.0940   21.4250 C   0  0  0  0  0  0  0  0  0  0  0  0
  -21.9670   -9.0540   20.4880 C   0  0  0  0  0  3  0  0  0  0  0  0
  -22.6970  -10.2400   20.3020 C   0  0  0  0  0  3  0  0  0  0  0  0
  -21.6290   -6.9520   21.5180 O   0  0  0  0  0  0  0  0  0  0  0  0
  -21.6110   -6.1930   22.6610 C   0  0  0  0  0  0  0  0  0  0  0  0
  -21.2460   -6.7380   23.9110 C   0  0  0  0  0  3  0  0  0  0  0  0
  -21.1720   -5.9080   25.0470 C   0  0  0  0  0  3  0  0  0  0  0  0
  -21.4530   -4.5330   24.9330 C   0  0  0  0  0  0  0  0  0  0  0  0
  -21.8120   -3.9870   23.6890 C   0  0  0  0  0  3  0  0  0  0  0  0
  -21.8880   -4.8150   22.5550 C   0  0  0  0  0  0  0  0  0  0  0  0
  -22.2140   -4.2800   21.3550 F   0  0  0  0  0  0  0  0  0  0  0  0
  -21.3760   -3.7330   26.0230 F   0  0  0  0  0  0  0  0  0  0  0  0
  -22.7370  -13.5850   21.1280 C   0  0  0  0  0  0  0  0  0  0  0  0
  -22.0020  -12.9000   21.9970 N   0  0  0  0  0  0  0  0  0  0  0  0
  -22.3030  -14.6040   20.5920 O   0  0  0  0  0  0  0  0  0  0  0  0
  -22.3660  -12.0740   22.4510 H   0  0  0  0  0  0  0  0  0  0  0  0
  -21.0650  -13.2050   22.2130 H   0  0  0  0  0  0  0  0  0  0  0  0
  -25.3790  -15.2350   20.3150 N   0  0  0  0  0  0  0  0  0  0  0  0
  -24.6180  -15.8980   20.4180 H   0  0  0  0  0  0  0  0  0  0  0  0
  -26.2390  -15.6660   20.0020 H   0  0  0  0  0  0  0  0  0  0  0  0
  -28.3650  -26.4960   20.1000 O   0  0  0  0  0  0  0  0  0  0  0  0
  -24.6340  -31.8840   23.2250 C   0  0  0  0  0  0  0  0  0  0  0  0
  -27.2340  -27.3150   20.1800 C   0  0  0  0  0  0  0  0  0  0  0  0
  -23.4200  -30.4710   21.6070 C   0  0  0  0  0  3  0  0  0  0  0  0
  -24.8640  -28.9100   20.1840 C   0  0  0  0  0  0  0  0  0  0  0  0
  -25.9570  -30.7890   21.4080 C   0  0  0  0  0  2  0  0  0  0  0  0
  -26.0340  -29.4060   20.7720 C   0  0  0  0  0  0  0  0  0  0  0  0
  -27.2240  -28.6200   20.7630 C   0  0  0  0  0  3  0  0  0  0  0  0
  -26.0470  -26.8680   19.5670 C   0  0  0  0  0  3  0  0  0  0  0  0
  -24.8700  -27.6430   19.5750 C   0  0  0  0  0  3  0  0  0  0  0  0
  -23.6250  -29.7830   20.2320 C   0  0  0  0  0  2  0  0  0  0  0  0
  -24.6910  -31.0620   22.1390 N   0  0  0  0  0  0  0  0  0  0  0  0
  -23.5490  -32.1910   23.7380 O   0  0  0  0  0  0  0  0  0  0  0  0
  -22.7650  -29.4570   22.5770 C   0  0  0  0  0  0  0  0  0  0  0  0
  -21.4380  -29.2780   22.4590 N   0  0  0  0  0  0  0  0  0  0  0  0
  -23.4480  -28.8350   23.3930 O   0  0  0  0  0  0  0  0  0  0  0  0
  -20.9460  -29.8310   21.7720 H   0  0  0  0  0  0  0  0  0  0  0  0
  -18.0660  -28.0710   22.9710 C   0  0  0  0  0  0  0  0  0  0  0  0
  -20.6230  -28.3420   23.2370 C   0  0  0  0  0  3  0  0  0  0  0  0
  -20.7310  -26.9070   22.6680 C   0  0  0  0  0  2  0  0  0  0  0  0
  -19.6280  -26.5750   21.6570 C   0  0  0  0  0  2  0  0  0  0  0  0
  -18.2470  -26.7190   22.3020 C   0  0  0  0  0  2  0  0  0  0  0  0
  -19.1820  -28.8400   23.3950 C   0  0  0  0  0  0  0  0  0  0  0  0
  -18.9580  -30.1060   23.9800 C   0  0  0  0  0  3  0  0  0  0  0  0
  -17.6520  -30.6030   24.1450 C   0  0  0  0  0  3  0  0  0  0  0  0
  -16.5510  -29.8300   23.7370 C   0  0  0  0  0  3  0  0  0  0  0  0
  -16.7580  -28.5660   23.1570 C   0  0  0  0  0  3  0  0  0  0  0  0
  -25.9230  -32.5080   23.8490 C   0  0  0  0  0  3  0  0  0  0  0  0
  -26.4480  -31.7280   25.1180 C   0  0  1  0  0  0  0  0  0  0  0  0
  -25.3630  -31.4890   26.1930 C   0  0  0  0  0  1  0  0  0  0  0  0
  -27.0270  -30.3520   24.7170 C   0  0  0  0  0  1  0  0  0  0  0  0
  -27.6070  -32.5180   25.7730 C   0  0  0  0  0  1  0  0  0  0  0  0
  -25.6170  -33.9040   24.1910 N   0  0  0  0  0  0  0  0  0  0  0  0
  -25.9350  -34.9600   23.4320 C   0  0  0  0  0  0  0  0  0  0  0  0
  -26.5870  -34.8620   22.3900 O   0  0  0  0  0  0  0  0  0  0  0  0
  -25.0330  -34.0530   25.0020 H   0  0  0  0  0  0  0  0  0  0  0  0
  -24.1890  -36.7450   23.1180 C   0  0  0  0  0  1  0  0  0  0  0  0
  -25.4500  -36.3450   23.9010 C   0  0  0  0  0  3  0  0  0  0  0  0
  -27.6000  -37.2360   24.6840 C   0  0  0  0  0  1  0  0  0  0  0  0
  -26.4750  -37.4030   23.7680 N   0  0  0  0  0  0  0  0  0  0  0  0
  -26.0690  -38.3210   23.9300 H   0  0  0  0  0  0  0  0  0  0  0  0
  1  3  1  0
  2  4  1  0
  3  6  1  0
  4  6  1  0
  5  1  1  0
  5  2  1  0
  5  7  1  0
  6 50  1  0
  7  9  2  0
  8  7  1  0
 10  8  1  0
 11  8  1  0
 11 12  1  0
 13 12  1  0
 14 13  1  0
 15 20  1  0
 16 17  1  0
 16 15  1  0
 18 17  1  0
 18 25  1  0
 18 19  1  0
 20 14  1  0
 20 19  1  0
 21 14  2  0
 22 23  2  0
 23 42  1  0
 24 23  1  0
 24 27  1  0
 25 22  1  0
 25 26  1  0
 26 24  2  0
 27 28  1  0
 28 29  2  0
 30 33  1  0
 30 29  1  0
 31 30  2  0
 32 31  1  0
 32 27  2  0
 33 34  1  0
 34 35  1  0
 35 36  2  0
 37 36  1  0
 37 41  1  0
 38 37  2  0
 39 34  2  0
 39 38  1  0
 40 39  1  0
 42 43  1  0
 43 46  1  0
 43 45  1  0
 44 42  2  0
 47 48  1  0
 47 22  1  0
 49 47  1  0
 50 52  1  0
 51 62  2  0
 52 57  1  0
 53 61  1  0
 53 63  1  0
 54 60  1  0
 54 56  1  0
 55 61  1  0
 56 55  1  0
 57 56  2  0
 58 59  1  0
 58 52  2  0
 59 54  2  0
 60 53  1  0
 61 51  1  0
 63 65  2  0
 64 63  1  0
 66 64  1  0
 67 76  2  0
 67 72  1  0
 68 64  1  0
 68 72  1  0
 69 68  1  0
 70 71  1  0
 70 69  1  0
 71 67  1  0
 72 73  2  0
 73 74  1  0
 75 74  2  0
 76 75  1  0
 77 51  1  0
 77 82  1  0
 77 78  1  0
 78 81  1  1
 78 79  1  0
 80 78  1  0
 82 85  1  0
 83 87  1  0
 83 82  1  0
 84 83  2  0
 87 86  1  0
 89 87  1  0
 89 90  1  0
 89 88  1  0
M  ISO  4   6 101  13 100  14 100  50 101
M  END
>  <TORSDO>  (90) 
F 20

>  <SCORE>  (90) 
-13.853

>  <name>  (90) 
89

>  <ligand_id>  (90) 
89

>  <original_smiles>  (90) 
[H]c1c([H])c([H])c2c(c1[H])C([H])([H])C([H])([H])C([H])([H])C2([H])N([H])C(=O)C1([H])N(C(=O)C([H])(N([H])C(=O)C([H])(N([H])C([H])([H])[H])C([H])([H])[H])C(C([H])([H])[H])(C([H])([H])[H])C([H])([H])[H])C([H])([H])c2c([H])c(OC3([H])C([H])([H])C([H])([H])C([H])(C(=O)N([H])C([H])([H])C([H])([H])C([H])([H])C(=O)N4C([H])([H])C([H])([H])C([H])([H])C([H])(n5nc(-c6c([H])c([H])c(Oc7c([H])c([H])c(F)c([H])c7F)c([H])c6[H])c(C(=O)N([H])[H])c5N([H])[H])C4([H])[H])C([H])([H])C3([H])[H])c([H])c([H])c2C1([H])[H]

>  <smiles>  (90) 
[H]c1c([H])c([H])c2c(c1[H])C([H])([H])C([H])([H])C([H])([H])C2([H])N([H])C(=O)C1([H])N(C(=O)C([H])(N([H])C(=O)C([H])(N([H])C([H])([H])[H])C([H])([H])[H])C(C([H])([H])[H])(C([H])([H])[H])C([H])([H])[H])C([H])([H])c2c([H])c(OC3([H])C([H])([H])C([H])([H])C([H])(C(=O)N([H])C([H])([H])C([H])([H])C([H])([H])C(=O)N4C([H])([H])C([H])([H])C([H])([H])C([H])(n5nc(-c6c([H])c([H])c(Oc7c([H])c([H])c(F)c([H])c7F)c([H])c6[H])c(C(=O)N([H])[H])c5N([H])[H])C4([H])[H])C([H])([H])C3([H])[H])c([H])c([H])c2C1([H])[H]

$$$$
90:0:0
     RDKit          3D

 90 97  0  0  1  0  0  0  0  0999 V2000
  -28.9350  -21.7810   19.9150 C   0  0  0  0  0  2  0  0  0  0  0  0
  -28.8150  -22.9060   21.0000 C   0  0  0  0  0  2  0  0  0  0  0  0
  -27.9400  -24.1880   20.7070 C   0  0  0  0  0  2  0  0  0  0  0  0
  -28.5120  -25.3000   19.7640 C   0  0  0  0  0  2  0  0  0  0  0  0
  -28.4070  -26.6740   20.2300 O   0  0  0  0  0  0  0  0  0  0  0  0
  -24.5910  -31.8910   23.2560 C   0  0  0  0  0  0  0  0  0  0  0  0
  -27.2230  -27.3990   20.1890 C   0  0  0  0  0  0  0  0  0  0  0  0
  -23.3800  -30.4830   21.6260 C   0  0  0  0  0  3  0  0  0  0  0  0
  -24.8290  -28.9370   20.1950 C   0  0  0  0  0  0  0  0  0  0  0  0
  -25.9090  -30.8300   21.4200 C   0  0  0  0  0  2  0  0  0  0  0  0
  -25.9910  -29.4550   20.7820 C   0  0  0  0  0  0  0  0  0  0  0  0
  -27.1870  -28.6940   20.7720 C   0  0  0  0  0  3  0  0  0  0  0  0
  -26.0400  -26.9040   19.5940 C   0  0  0  0  0  3  0  0  0  0  0  0
  -24.8530  -27.6640   19.5970 C   0  0  0  0  0  3  0  0  0  0  0  0
  -23.5850  -29.7980   20.2470 C   0  0  0  0  0  2  0  0  0  0  0  0
  -24.6480  -31.0800   22.1610 N   0  0  0  0  0  0  0  0  0  0  0  0
  -23.5050  -32.1890   23.7730 O   0  0  0  0  0  0  0  0  0  0  0  0
  -22.7260  -29.4680   22.5910 C   0  0  0  0  0  0  0  0  0  0  0  0
  -21.4010  -29.2850   22.4650 N   0  0  0  0  0  0  0  0  0  0  0  0
  -23.4100  -28.8450   23.4080 O   0  0  0  0  0  0  0  0  0  0  0  0
  -20.9110  -29.8360   21.7740 H   0  0  0  0  0  0  0  0  0  0  0  0
  -18.0270  -28.0850   22.9570 C   0  0  0  0  0  0  0  0  0  0  0  0
  -20.5850  -28.3450   23.2340 C   0  0  0  0  0  3  0  0  0  0  0  0
  -20.6900  -26.9150   22.6550 C   0  0  0  0  0  2  0  0  0  0  0  0
  -19.5900  -26.5940   21.6390 C   0  0  0  0  0  2  0  0  0  0  0  0
  -18.2080  -26.7370   22.2800 C   0  0  0  0  0  2  0  0  0  0  0  0
  -19.1440  -28.8470   23.3910 C   0  0  0  0  0  0  0  0  0  0  0  0
  -18.9230  -30.1110   23.9810 C   0  0  0  0  0  3  0  0  0  0  0  0
  -17.6170  -30.6120   24.1420 C   0  0  0  0  0  3  0  0  0  0  0  0
  -16.5150  -29.8460   23.7260 C   0  0  0  0  0  3  0  0  0  0  0  0
  -16.7210  -28.5850   23.1400 C   0  0  0  0  0  3  0  0  0  0  0  0
  -25.8790  -32.5120   23.8860 C   0  0  0  0  0  3  0  0  0  0  0  0
  -25.5770  -33.9120   24.2180 N   0  0  0  0  0  0  0  0  0  0  0  0
  -25.9090  -34.9610   23.4560 C   0  0  0  0  0  0  0  0  0  0  0  0
  -26.5750  -34.8540   22.4220 O   0  0  0  0  0  0  0  0  0  0  0  0
  -24.9840  -34.0690   25.0200 H   0  0  0  0  0  0  0  0  0  0  0  0
  -24.1830  -36.7560   23.1030 C   0  0  0  0  0  1  0  0  0  0  0  0
  -25.4270  -36.3520   23.9110 C   0  0  0  0  0  3  0  0  0  0  0  0
  -27.5690  -37.2340   24.7260 C   0  0  0  0  0  1  0  0  0  0  0  0
  -26.4620  -37.4020   23.7880 N   0  0  0  0  0  0  0  0  0  0  0  0
  -26.0600  -38.3240   23.9340 H   0  0  0  0  0  0  0  0  0  0  0  0
  -26.3920  -31.7370   25.1610 C   0  0  1  0  0  0  0  0  0  0  0  0
  -25.2970  -31.5020   26.2270 C   0  0  0  0  0  1  0  0  0  0  0  0
  -26.9660  -30.3570   24.7650 C   0  0  0  0  0  1  0  0  0  0  0  0
  -27.5490  -32.5240   25.8230 C   0  0  0  0  0  1  0  0  0  0  0  0
  -28.3580  -20.3520   20.2420 C   0  0  0  0  0  2  0  0  0  0  0  0
  -29.2570  -17.9810   20.4720 C   0  0  0  0  0  0  0  0  0  0  0  0
  -29.3110  -19.3170   20.7330 N   0  0  0  0  0  0  0  0  0  0  0  0
  -28.4520  -17.5070   19.6700 O   0  0  0  0  0  0  0  0  0  0  0  0
  -30.0040  -19.6190   21.4060 H   0  0  0  0  0  0  0  0  0  0  0  0
  -31.6980  -17.3940   21.1660 C   0  0  0  0  0  1  0  0  0  0  0  0
  -30.2050  -17.0090   21.2430 C   0  0  0  0  0  3  0  0  0  0  0  0
  -30.5980  -14.5500   20.4340 C   0  0  0  0  0  0  0  0  0  0  0  0
  -30.3120  -12.3720   19.2790 C   0  0  0  0  0  2  0  0  0  0  0  0
  -29.3570  -12.5590   18.0810 C   0  0  0  0  0  2  0  0  0  0  0  0
  -27.8890  -12.4110   18.5260 C   0  0  0  0  0  2  0  0  0  0  0  0
  -27.5610  -13.2460   19.7910 C   0  0  0  0  0  3  0  0  0  0  0  0
  -28.6260  -13.0340   20.8900 C   0  0  0  0  0  2  0  0  0  0  0  0
  -29.9390  -13.3600   20.3090 N   0  0  0  0  0  0  0  0  0  0  0  0
  -31.7040  -14.7280   19.9160 O   0  0  0  0  0  0  0  0  0  0  0  0
  -29.9280  -15.5440   21.0730 N   0  0  0  0  0  0  0  0  0  0  0  0
  -29.0210  -15.2630   21.4160 H   0  0  0  0  0  0  0  0  0  0  0  0
  -25.1730  -13.8480   20.5340 C   0  0  0  0  0  0  0  0  0  0  0  0
  -24.1090  -13.0750   20.9120 C   0  0  0  0  0  0  0  0  0  0  0  0
  -24.5680  -11.7220   20.8680 C   0  0  0  0  0  0  0  0  0  0  0  0
  -26.2150  -12.9670   20.2860 N   0  0  0  0  0  0  0  0  0  0  0  0
  -25.8550  -11.6830   20.5440 N   0  0  0  0  0  0  0  0  0  0  0  0
  -23.8420  -10.4600   21.0610 C   0  0  0  0  0  0  0  0  0  0  0  0
  -24.2890   -9.4830   21.9790 C   0  0  0  0  0  3  0  0  0  0  0  0
  -23.5630   -8.2870   22.1600 C   0  0  0  0  0  3  0  0  0  0  0  0
  -22.3770   -8.0570   21.4210 C   0  0  0  0  0  0  0  0  0  0  0  0
  -21.9500   -9.0220   20.4920 C   0  0  0  0  0  3  0  0  0  0  0  0
  -22.6770  -10.2110   20.3100 C   0  0  0  0  0  3  0  0  0  0  0  0
  -21.6220   -6.9130   21.5120 O   0  0  0  0  0  0  0  0  0  0  0  0
  -21.5980   -6.1540   22.6540 C   0  0  0  0  0  0  0  0  0  0  0  0
  -21.2020   -6.6940   23.8980 C   0  0  0  0  0  3  0  0  0  0  0  0
  -21.1230   -5.8640   25.0330 C   0  0  0  0  0  3  0  0  0  0  0  0
  -21.4310   -4.4940   24.9280 C   0  0  0  0  0  0  0  0  0  0  0  0
  -21.8200   -3.9530   23.6900 C   0  0  0  0  0  3  0  0  0  0  0  0
  -21.9010   -4.7820   22.5560 C   0  0  0  0  0  0  0  0  0  0  0  0
  -22.2570   -4.2510   21.3610 F   0  0  0  0  0  0  0  0  0  0  0  0
  -21.3500   -3.6930   26.0160 F   0  0  0  0  0  0  0  0  0  0  0  0
  -22.7150  -13.5530   21.2040 C   0  0  0  0  0  0  0  0  0  0  0  0
  -21.9970  -12.8530   22.0740 N   0  0  0  0  0  0  0  0  0  0  0  0
  -22.2730  -14.5820   20.6950 O   0  0  0  0  0  0  0  0  0  0  0  0
  -22.3650  -12.0200   22.5070 H   0  0  0  0  0  0  0  0  0  0  0  0
  -21.0620  -13.1570   22.3120 H   0  0  0  0  0  0  0  0  0  0  0  0
  -25.3380  -15.2200   20.3630 N   0  0  0  0  0  0  0  0  0  0  0  0
  -24.5720  -15.8740   20.4770 H   0  0  0  0  0  0  0  0  0  0  0  0
  -26.1870  -15.6630   20.0300 H   0  0  0  0  0  0  0  0  0  0  0  0
  1 46  1  0
  1  2  1  0
  3  2  1  0
  4  5  1  0
  4  3  1  0
  6 17  2  0
  7  5  1  0
  7 12  1  0
  8 16  1  0
  8 18  1  0
  9 15  1  0
  9 11  1  0
 10 16  1  0
 11 10  1  0
 12 11  2  0
 13 14  1  0
 13  7  2  0
 14  9  2  0
 15  8  1  0
 16  6  1  0
 18 20  2  0
 19 18  1  0
 21 19  1  0
 22 31  2  0
 22 27  1  0
 23 19  1  0
 23 27  1  0
 24 23  1  0
 25 26  1  0
 25 24  1  0
 26 22  1  0
 27 28  2  0
 28 29  1  0
 30 29  2  0
 31 30  1  0
 32  6  1  0
 32 33  1  0
 32 42  1  0
 33 36  1  0
 34 38  1  0
 34 33  1  0
 35 34  2  0
 38 37  1  0
 40 38  1  0
 40 41  1  0
 40 39  1  0
 42 45  1  1
 42 43  1  0
 44 42  1  0
 46 48  1  0
 47 48  1  0
 47 52  1  0
 48 50  1  0
 49 47  2  0
 52 51  1  0
 53 61  1  0
 54 59  1  0
 55 56  1  0
 55 54  1  0
 57 56  1  0
 57 66  1  0
 57 58  1  0
 59 53  1  0
 59 58  1  0
 60 53  2  0
 61 52  1  0
 61 62  1  0
 63 64  2  0
 64 83  1  0
 65 64  1  0
 65 68  1  0
 66 63  1  0
 66 67  1  0
 67 65  2  0
 68 69  1  0
 69 70  2  0
 71 74  1  0
 71 70  1  0
 72 71  2  0
 73 72  1  0
 73 68  2  0
 74 75  1  0
 75 76  1  0
 76 77  2  0
 78 77  1  0
 78 82  1  0
 79 78  2  0
 80 75  2  0
 80 79  1  0
 81 80  1  0
 83 84  1  0
 84 87  1  0
 84 86  1  0
 85 83  2  0
 88 89  1  0
 88 63  1  0
 90 88  1  0
M  ISO  4   4 101   5 101  53 100  61 100
M  END
>  <TORSDO>  (91) 
F 22

>  <SCORE>  (91) 
-13.319

>  <name>  (91) 
90

>  <ligand_id>  (91) 
90

>  <original_smiles>  (91) 
[H]c1c([H])c([H])c2c(c1[H])C([H])([H])C([H])([H])C([H])([H])C2([H])N([H])C(=O)C1([H])N(C(=O)C([H])(N([H])C(=O)C([H])(N([H])C([H])([H])[H])C([H])([H])[H])C(C([H])([H])[H])(C([H])([H])[H])C([H])([H])[H])C([H])([H])c2c([H])c(OC([H])([H])C([H])([H])C([H])([H])C([H])([H])C([H])([H])N([H])C(=O)C([H])(N([H])C(=O)N3C([H])([H])C([H])([H])C([H])([H])C([H])(n4nc(-c5c([H])c([H])c(Oc6c([H])c([H])c(F)c([H])c6F)c([H])c5[H])c(C(=O)N([H])[H])c4N([H])[H])C3([H])[H])C([H])([H])[H])c([H])c([H])c2C1([H])[H]

>  <smiles>  (91) 
[H]c1c([H])c([H])c2c(c1[H])C([H])([H])C([H])([H])C([H])([H])C2([H])N([H])C(=O)C1([H])N(C(=O)C([H])(N([H])C(=O)C([H])(N([H])C([H])([H])[H])C([H])([H])[H])C(C([H])([H])[H])(C([H])([H])[H])C([H])([H])[H])C([H])([H])c2c([H])c(OC([H])([H])C([H])([H])C([H])([H])C([H])([H])C([H])([H])N([H])C(=O)C([H])(N([H])C(=O)N3C([H])([H])C([H])([H])C([H])([H])C([H])(n4nc(-c5c([H])c([H])c(Oc6c([H])c([H])c(F)c([H])c6F)c([H])c5[H])c(C(=O)N([H])[H])c4N([H])[H])C3([H])[H])C([H])([H])[H])c([H])c([H])c2C1([H])[H]

$$$$
91:0:0
     RDKit          3D

 94103  0  0  1  0  0  0  0  0999 V2000
  -29.4900  -22.7640   21.9270 C   0  0  0  0  0  3  0  0  0  0  0  0
  -29.8580  -21.4850   22.4030 C   0  0  0  0  0  3  0  0  0  0  0  0
  -31.0330  -22.5080   20.0720 C   0  0  0  0  0  3  0  0  0  0  0  0
  -30.0410  -23.2770   20.7250 C   0  0  0  0  0  0  0  0  0  0  0  0
  -30.8070  -20.7040   21.7080 C   0  0  0  0  0  0  0  0  0  0  0  0
  -31.4080  -21.2370   20.5500 C   0  0  0  0  0  0  0  0  0  0  0  0
  -32.3420  -20.5220   19.8750 F   0  0  0  0  0  0  0  0  0  0  0  0
  -27.5250  -23.9150   18.9800 C   0  0  0  0  0  0  0  0  0  0  0  0
  -28.9750  -24.2250   18.6560 C   0  0  0  0  0  2  0  0  0  0  0  0
  -27.1770  -24.4170   20.3680 C   0  0  0  0  0  2  0  0  0  0  0  0
  -29.5600  -24.5800   20.0400 C   0  0  0  0  0  3  0  0  0  0  0  0
  -28.3730  -25.3460   20.7050 C   0  0  0  0  0  3  0  0  0  0  0  0
  -26.7390  -23.3470   18.2180 O   0  0  0  0  0  0  0  0  0  0  0  0
  -28.3680  -26.6900   20.1270 O   0  0  0  0  0  0  0  0  0  0  0  0
  -24.6160  -31.9210   23.2650 C   0  0  0  0  0  0  0  0  0  0  0  0
  -27.2150  -27.4550   20.1600 C   0  0  0  0  0  0  0  0  0  0  0  0
  -23.3980  -30.5230   21.6340 C   0  0  0  0  0  3  0  0  0  0  0  0
  -24.8380  -28.9990   20.1880 C   0  0  0  0  0  0  0  0  0  0  0  0
  -25.9290  -30.8620   21.4350 C   0  0  0  0  0  2  0  0  0  0  0  0
  -26.0020  -29.4950   20.7890 C   0  0  0  0  0  0  0  0  0  0  0  0
  -27.1930  -28.7260   20.7830 C   0  0  0  0  0  3  0  0  0  0  0  0
  -26.0510  -27.0280   19.4840 C   0  0  0  0  0  3  0  0  0  0  0  0
  -24.8580  -27.7610   19.5330 C   0  0  0  0  0  3  0  0  0  0  0  0
  -23.5970  -29.8580   20.2480 C   0  0  0  0  0  2  0  0  0  0  0  0
  -24.6660  -31.1140   22.1700 N   0  0  0  0  0  0  0  0  0  0  0  0
  -23.5330  -32.2190   23.7880 O   0  0  0  0  0  0  0  0  0  0  0  0
  -22.7520  -29.4930   22.5900 C   0  0  0  0  0  0  0  0  0  0  0  0
  -21.4290  -29.3030   22.4600 N   0  0  0  0  0  0  0  0  0  0  0  0
  -23.4390  -28.8690   23.4030 O   0  0  0  0  0  0  0  0  0  0  0  0
  -20.9340  -29.8570   21.7760 H   0  0  0  0  0  0  0  0  0  0  0  0
  -18.0640  -28.0780   22.9430 C   0  0  0  0  0  0  0  0  0  0  0  0
  -20.6170  -28.3590   23.2280 C   0  0  0  0  0  3  0  0  0  0  0  0
  -20.7360  -26.9260   22.6570 C   0  0  0  0  0  2  0  0  0  0  0  0
  -19.6410  -26.5920   21.6380 C   0  0  0  0  0  2  0  0  0  0  0  0
  -18.2550  -26.7290   22.2720 C   0  0  0  0  0  2  0  0  0  0  0  0
  -19.1740  -28.8510   23.3770 C   0  0  0  0  0  0  0  0  0  0  0  0
  -18.9410  -30.1150   23.9620 C   0  0  0  0  0  3  0  0  0  0  0  0
  -17.6310  -30.6060   24.1190 C   0  0  0  0  0  3  0  0  0  0  0  0
  -16.5360  -29.8300   23.7010 C   0  0  0  0  0  3  0  0  0  0  0  0
  -16.7530  -28.5680   23.1200 C   0  0  0  0  0  3  0  0  0  0  0  0
  -25.9080  -32.5370   23.8860 C   0  0  0  0  0  3  0  0  0  0  0  0
  -25.6080  -33.9350   24.2230 N   0  0  0  0  0  0  0  0  0  0  0  0
  -25.9300  -34.9870   23.4600 C   0  0  0  0  0  0  0  0  0  0  0  0
  -26.5880  -34.8850   22.4200 O   0  0  0  0  0  0  0  0  0  0  0  0
  -25.0250  -34.0900   25.0320 H   0  0  0  0  0  0  0  0  0  0  0  0
  -24.1930  -36.7750   23.1270 C   0  0  0  0  0  1  0  0  0  0  0  0
  -25.4450  -36.3730   23.9230 C   0  0  0  0  0  3  0  0  0  0  0  0
  -27.5980  -37.2510   24.7180 C   0  0  0  0  0  1  0  0  0  0  0  0
  -26.4710  -37.4320   23.8050 N   0  0  0  0  0  0  0  0  0  0  0  0
  -26.0650  -38.3460   23.9860 H   0  0  0  0  0  0  0  0  0  0  0  0
  -26.4300  -31.7560   25.1550 C   0  0  1  0  0  0  0  0  0  0  0  0
  -25.3420  -31.5170   26.2260 C   0  0  0  0  0  1  0  0  0  0  0  0
  -27.0070  -30.3790   24.7540 C   0  0  0  0  0  1  0  0  0  0  0  0
  -27.5880  -32.5440   25.8130 C   0  0  0  0  0  1  0  0  0  0  0  0
  -31.2020  -19.3170   22.2110 C   0  0  0  0  0  2  0  0  0  0  0  0
  -30.2980  -18.1700   21.7010 C   0  0  0  0  0  2  0  0  0  0  0  0
  -31.0270  -16.8060   21.6590 C   0  0  0  0  0  2  0  0  0  0  0  0
  -30.1050  -15.5800   21.3900 C   0  0  0  0  0  2  0  0  0  0  0  0
  -30.7020  -14.4580   20.5050 C   0  0  0  0  0  0  0  0  0  0  0  0
  -30.3570  -12.3540   19.2460 C   0  0  0  0  0  2  0  0  0  0  0  0
  -29.4140  -12.5940   18.0490 C   0  0  0  0  0  2  0  0  0  0  0  0
  -27.9400  -12.4570   18.4770 C   0  0  0  0  0  2  0  0  0  0  0  0
  -27.6140  -13.2810   19.7500 C   0  0  0  0  0  3  0  0  0  0  0  0
  -28.6640  -13.0240   20.8540 C   0  0  0  0  0  2  0  0  0  0  0  0
  -29.9980  -13.3120   20.3030 N   0  0  0  0  0  0  0  0  0  0  0  0
  -31.7820  -14.6600   19.9390 O   0  0  0  0  0  0  0  0  0  0  0  0
  -25.2170  -13.9090   20.4480 C   0  0  0  0  0  0  0  0  0  0  0  0
  -24.1430  -13.1460   20.8180 C   0  0  0  0  0  0  0  0  0  0  0  0
  -24.5950  -11.7910   20.7970 C   0  0  0  0  0  0  0  0  0  0  0  0
  -26.2580  -13.0190   20.2260 N   0  0  0  0  0  0  0  0  0  0  0  0
  -25.8860  -11.7400   20.4920 N   0  0  0  0  0  0  0  0  0  0  0  0
  -23.8610  -10.5340   20.9940 C   0  0  0  0  0  0  0  0  0  0  0  0
  -24.2900   -9.5670   21.9290 C   0  0  0  0  0  3  0  0  0  0  0  0
  -23.5570   -8.3750   22.1130 C   0  0  0  0  0  3  0  0  0  0  0  0
  -22.3820   -8.1410   21.3610 C   0  0  0  0  0  0  0  0  0  0  0  0
  -21.9720   -9.0950   20.4140 C   0  0  0  0  0  3  0  0  0  0  0  0
  -22.7060  -10.2800   20.2280 C   0  0  0  0  0  3  0  0  0  0  0  0
  -21.6210   -7.0000   21.4530 O   0  0  0  0  0  0  0  0  0  0  0  0
  -21.5720   -6.2590   22.6050 C   0  0  0  0  0  0  0  0  0  0  0  0
  -21.1630   -6.8200   23.8360 C   0  0  0  0  0  3  0  0  0  0  0  0
  -21.0610   -6.0060   24.9810 C   0  0  0  0  0  3  0  0  0  0  0  0
  -21.3570   -4.6320   24.8980 C   0  0  0  0  0  0  0  0  0  0  0  0
  -21.7590   -4.0710   23.6730 C   0  0  0  0  0  3  0  0  0  0  0  0
  -21.8630   -4.8820   22.5300 C   0  0  0  0  0  0  0  0  0  0  0  0
  -22.2310   -4.3320   21.3480 F   0  0  0  0  0  0  0  0  0  0  0  0
  -21.2510   -3.8480   25.9970 F   0  0  0  0  0  0  0  0  0  0  0  0
  -22.7480  -13.6330   21.0850 C   0  0  0  0  0  0  0  0  0  0  0  0
  -22.0150  -12.9450   21.9530 N   0  0  0  0  0  0  0  0  0  0  0  0
  -22.3160  -14.6580   20.5600 O   0  0  0  0  0  0  0  0  0  0  0  0
  -22.3770  -12.1160   22.4020 H   0  0  0  0  0  0  0  0  0  0  0  0
  -21.0770  -13.2510   22.1740 H   0  0  0  0  0  0  0  0  0  0  0  0
  -25.3930  -15.2770   20.2640 N   0  0  0  0  0  0  0  0  0  0  0  0
  -24.6330  -15.9410   20.3660 H   0  0  0  0  0  0  0  0  0  0  0  0
  -26.2570  -15.7060   19.9560 H   0  0  0  0  0  0  0  0  0  0  0  0
  1  2  1  0
  3  6  2  0
  3  4  1  0
  4  1  2  0
  5 55  1  0
  5  2  2  0
  6  5  1  0
  7  6  1  0
  8 10  1  0
  9  8  1  0
  9 11  1  0
 10 12  1  0
 11 12  1  0
 11  4  1  0
 12 14  1  0
 13  8  2  0
 14 16  1  0
 15 26  2  0
 16 21  1  0
 17 25  1  0
 17 27  1  0
 18 24  1  0
 18 20  1  0
 19 25  1  0
 20 19  1  0
 21 20  2  0
 22 23  1  0
 22 16  2  0
 23 18  2  0
 24 17  1  0
 25 15  1  0
 27 29  2  0
 28 27  1  0
 30 28  1  0
 31 40  2  0
 31 36  1  0
 32 28  1  0
 32 36  1  0
 33 32  1  0
 34 35  1  0
 34 33  1  0
 35 31  1  0
 36 37  2  0
 37 38  1  0
 39 38  2  0
 40 39  1  0
 41 15  1  0
 41 42  1  0
 41 51  1  0
 42 45  1  0
 43 47  1  0
 43 42  1  0
 44 43  2  0
 47 46  1  0
 49 47  1  0
 49 50  1  0
 49 48  1  0
 51 54  1  1
 51 52  1  0
 53 51  1  0
 56 55  1  0
 57 56  1  0
 58 57  1  0
 59 58  1  0
 60 65  1  0
 61 62  1  0
 61 60  1  0
 63 62  1  0
 63 70  1  0
 63 64  1  0
 65 59  1  0
 65 64  1  0
 66 59  2  0
 67 68  2  0
 68 87  1  0
 69 68  1  0
 69 72  1  0
 70 67  1  0
 70 71  1  0
 71 69  2  0
 72 73  1  0
 73 74  2  0
 75 78  1  0
 75 74  1  0
 76 75  2  0
 77 76  1  0
 77 72  2  0
 78 79  1  0
 79 80  1  0
 80 81  2  0
 82 81  1  0
 82 86  1  0
 83 82  2  0
 84 79  2  0
 84 83  1  0
 85 84  1  0
 87 88  1  0
 88 91  1  0
 88 90  1  0
 89 87  2  0
 92 93  1  0
 92 67  1  0
 94 92  1  0
M  ISO  4  12 101  14 101  58 100  59 100
M  END
>  <TORSDO>  (92) 
F 21

>  <SCORE>  (92) 
-13.766

>  <name>  (92) 
91

>  <ligand_id>  (92) 
91

>  <original_smiles>  (92) 
[H]c1c([H])c([H])c2c(c1[H])C([H])([H])C([H])([H])C([H])([H])C2([H])N([H])C(=O)C1([H])N(C(=O)C([H])(N([H])C(=O)C([H])(N([H])C([H])([H])[H])C([H])([H])[H])C(C([H])([H])[H])(C([H])([H])[H])C([H])([H])[H])C([H])([H])c2c([H])c(OC3([H])C([H])([H])C(=O)C([H])([H])C3([H])c3c([H])c([H])c(C([H])([H])C([H])([H])C([H])([H])C([H])([H])C(=O)N4C([H])([H])C([H])([H])C([H])([H])C([H])(n5nc(-c6c([H])c([H])c(Oc7c([H])c([H])c(F)c([H])c7F)c([H])c6[H])c(C(=O)N([H])[H])c5N([H])[H])C4([H])[H])c(F)c3[H])c([H])c([H])c2C1([H])[H]

>  <smiles>  (92) 
[H]c1c([H])c([H])c2c(c1[H])C([H])([H])C([H])([H])C([H])([H])C2([H])N([H])C(=O)C1([H])N(C(=O)C([H])(N([H])C(=O)C([H])(N([H])C([H])([H])[H])C([H])([H])[H])C(C([H])([H])[H])(C([H])([H])[H])C([H])([H])[H])C([H])([H])c2c([H])c(OC3([H])C([H])([H])C(=O)C([H])([H])C3([H])c3c([H])c([H])c(C([H])([H])C([H])([H])C([H])([H])C([H])([H])C(=O)N4C([H])([H])C([H])([H])C([H])([H])C([H])(n5nc(-c6c([H])c([H])c(Oc7c([H])c([H])c(F)c([H])c7F)c([H])c6[H])c(C(=O)N([H])[H])c5N([H])[H])C4([H])[H])c(F)c3[H])c([H])c([H])c2C1([H])[H]

$$$$
92:0:0
     RDKit          3D

 91 99  0  0  1  0  0  0  0  0999 V2000
  -28.9980  -21.2540   19.9630 C   0  0  0  0  0  0  0  0  0  0  0  0
  -28.9970  -22.5270   20.5040 N   0  0  0  0  0  0  0  0  0  0  0  0
  -28.3230  -21.0250   18.9580 O   0  0  0  0  0  0  0  0  0  0  0  0
  -29.5340  -22.6430   21.3530 H   0  0  0  0  0  0  0  0  0  0  0  0
  -31.3660  -17.7930   21.4850 C   0  0  0  0  0  3  0  0  0  0  0  0
  -31.8080  -19.1170   21.6710 C   0  0  0  0  0  3  0  0  0  0  0  0
  -29.4070  -18.6820   20.3690 C   0  0  0  0  0  3  0  0  0  0  0  0
  -29.8150  -20.0640   20.5620 C   0  0  0  0  0  0  0  0  0  0  0  0
  -30.1570  -17.5240   20.8160 C   0  0  0  0  0  0  0  0  0  0  0  0
  -31.0690  -20.2380   21.2210 C   0  0  0  0  0  0  0  0  0  0  0  0
  -31.6930  -21.6050   21.4640 C   0  0  0  0  0  1  0  0  0  0  0  0
  -29.6140  -16.0340   20.7230 C   0  0  0  0  0  2  0  0  0  0  0  0
  -30.5260  -14.7460   20.4230 C   0  0  0  0  0  0  0  0  0  0  0  0
  -30.3750  -12.4850   19.3670 C   0  0  0  0  0  2  0  0  0  0  0  0
  -29.4370  -12.6110   18.1450 C   0  0  0  0  0  2  0  0  0  0  0  0
  -27.9630  -12.4230   18.5570 C   0  0  0  0  0  2  0  0  0  0  0  0
  -27.5850  -13.2750   19.7980 C   0  0  0  0  0  3  0  0  0  0  0  0
  -28.6390  -13.1330   20.9160 C   0  0  0  0  0  2  0  0  0  0  0  0
  -29.9490  -13.4980   20.3570 N   0  0  0  0  0  0  0  0  0  0  0  0
  -31.7040  -14.8950   20.0740 O   0  0  0  0  0  0  0  0  0  0  0  0
  -25.1890  -13.8650   20.5100 C   0  0  0  0  0  0  0  0  0  0  0  0
  -24.1220  -13.0870   20.8710 C   0  0  0  0  0  0  0  0  0  0  0  0
  -24.5910  -11.7390   20.8440 C   0  0  0  0  0  0  0  0  0  0  0  0
  -26.2360  -12.9860   20.2790 N   0  0  0  0  0  0  0  0  0  0  0  0
  -25.8810  -11.7030   20.5400 N   0  0  0  0  0  0  0  0  0  0  0  0
  -23.8690  -10.4720   21.0310 C   0  0  0  0  0  0  0  0  0  0  0  0
  -24.2900   -9.5160   21.9800 C   0  0  0  0  0  3  0  0  0  0  0  0
  -23.5700   -8.3140   22.1530 C   0  0  0  0  0  3  0  0  0  0  0  0
  -22.4140   -8.0610   21.3750 C   0  0  0  0  0  0  0  0  0  0  0  0
  -22.0140   -9.0060   20.4140 C   0  0  0  0  0  3  0  0  0  0  0  0
  -22.7340  -10.1990   20.2410 C   0  0  0  0  0  3  0  0  0  0  0  0
  -21.6650   -6.9120   21.4570 O   0  0  0  0  0  0  0  0  0  0  0  0
  -21.5890   -6.1840   22.6170 C   0  0  0  0  0  0  0  0  0  0  0  0
  -21.0930   -6.7420   23.8160 C   0  0  0  0  0  3  0  0  0  0  0  0
  -20.9670   -5.9390   24.9680 C   0  0  0  0  0  3  0  0  0  0  0  0
  -21.3280   -4.5790   24.9200 C   0  0  0  0  0  0  0  0  0  0  0  0
  -21.8150   -4.0200   23.7260 C   0  0  0  0  0  3  0  0  0  0  0  0
  -21.9450   -4.8210   22.5780 C   0  0  0  0  0  0  0  0  0  0  0  0
  -22.3950   -4.2720   21.4220 F   0  0  0  0  0  0  0  0  0  0  0  0
  -21.1970   -3.8060   26.0230 F   0  0  0  0  0  0  0  0  0  0  0  0
  -22.7210  -13.5570   21.1350 C   0  0  0  0  0  0  0  0  0  0  0  0
  -21.9900  -12.8510   21.9900 N   0  0  0  0  0  0  0  0  0  0  0  0
  -22.2830  -14.5820   20.6180 O   0  0  0  0  0  0  0  0  0  0  0  0
  -22.3570  -12.0210   22.4320 H   0  0  0  0  0  0  0  0  0  0  0  0
  -21.0490  -13.1440   22.2060 H   0  0  0  0  0  0  0  0  0  0  0  0
  -25.3500  -15.2370   20.3360 N   0  0  0  0  0  0  0  0  0  0  0  0
  -24.5840  -15.8920   20.4480 H   0  0  0  0  0  0  0  0  0  0  0  0
  -26.2040  -15.6800   20.0180 H   0  0  0  0  0  0  0  0  0  0  0  0
  -28.4110  -23.7990   19.8950 C   0  0  0  0  0  2  0  0  0  0  0  0
  -28.3300  -25.1430   20.7800 C   0  0  0  0  0  2  0  0  0  0  0  0
  -28.3360  -26.5110   20.1790 O   0  0  0  0  0  0  0  0  0  0  0  0
  -24.5750  -31.9250   23.2190 C   0  0  0  0  0  0  0  0  0  0  0  0
  -27.1950  -27.3310   20.2120 C   0  0  0  0  0  0  0  0  0  0  0  0
  -23.3740  -30.5140   21.5880 C   0  0  0  0  0  3  0  0  0  0  0  0
  -24.8280  -28.9450   20.1810 C   0  0  0  0  0  0  0  0  0  0  0  0
  -25.9160  -30.8240   21.4120 C   0  0  0  0  0  2  0  0  0  0  0  0
  -25.9960  -29.4400   20.7770 C   0  0  0  0  0  0  0  0  0  0  0  0
  -27.1850  -28.6470   20.7740 C   0  0  0  0  0  3  0  0  0  0  0  0
  -26.0080  -26.8820   19.6010 C   0  0  0  0  0  3  0  0  0  0  0  0
  -24.8390  -27.6720   19.5830 C   0  0  0  0  0  3  0  0  0  0  0  0
  -23.5930  -29.8250   20.2150 C   0  0  0  0  0  2  0  0  0  0  0  0
  -24.6420  -31.1030   22.1330 N   0  0  0  0  0  0  0  0  0  0  0  0
  -23.4860  -32.2340   23.7190 O   0  0  0  0  0  0  0  0  0  0  0  0
  -22.7030  -29.5080   22.5530 C   0  0  0  0  0  0  0  0  0  0  0  0
  -21.3770  -29.3330   22.4200 N   0  0  0  0  0  0  0  0  0  0  0  0
  -23.3770  -28.8830   23.3770 O   0  0  0  0  0  0  0  0  0  0  0  0
  -20.8940  -29.8880   21.7270 H   0  0  0  0  0  0  0  0  0  0  0  0
  -17.9920  -28.1610   22.9220 C   0  0  0  0  0  0  0  0  0  0  0  0
  -20.5530  -28.3980   23.1880 C   0  0  0  0  0  3  0  0  0  0  0  0
  -20.6420  -26.9680   22.6050 C   0  0  0  0  0  2  0  0  0  0  0  0
  -19.5340  -26.6610   21.5910 C   0  0  0  0  0  2  0  0  0  0  0  0
  -18.1540  -26.8140   22.2380 C   0  0  0  0  0  2  0  0  0  0  0  0
  -19.1170  -28.9120   23.3530 C   0  0  0  0  0  0  0  0  0  0  0  0
  -18.9100  -30.1740   23.9520 C   0  0  0  0  0  3  0  0  0  0  0  0
  -17.6090  -30.6830   24.1260 C   0  0  0  0  0  3  0  0  0  0  0  0
  -16.4990  -29.9290   23.7100 C   0  0  0  0  0  3  0  0  0  0  0  0
  -16.6910  -28.6710   23.1130 C   0  0  0  0  0  3  0  0  0  0  0  0
  -25.8570  -32.5450   23.8590 C   0  0  0  0  0  3  0  0  0  0  0  0
  -26.3570  -31.7710   25.1410 C   0  0  1  0  0  0  0  0  0  0  0  0
  -25.2490  -31.5350   26.1940 C   0  0  0  0  0  1  0  0  0  0  0  0
  -26.9430  -30.3930   24.7570 C   0  0  0  0  0  1  0  0  0  0  0  0
  -27.5030  -32.5630   25.8160 C   0  0  0  0  0  1  0  0  0  0  0  0
  -25.5550  -33.9450   24.1900 N   0  0  0  0  0  0  0  0  0  0  0  0
  -25.8870  -34.9950   23.4270 C   0  0  0  0  0  0  0  0  0  0  0  0
  -26.5530  -34.8860   22.3950 O   0  0  0  0  0  0  0  0  0  0  0  0
  -24.9700  -34.1030   24.9980 H   0  0  0  0  0  0  0  0  0  0  0  0
  -24.1690  -36.7960   23.0640 C   0  0  0  0  0  1  0  0  0  0  0  0
  -25.4040  -36.3870   23.8810 C   0  0  0  0  0  3  0  0  0  0  0  0
  -27.5360  -37.2690   24.7230 C   0  0  0  0  0  1  0  0  0  0  0  0
  -26.4410  -37.4350   23.7710 N   0  0  0  0  0  0  0  0  0  0  0  0
  -26.0380  -38.3580   23.9100 H   0  0  0  0  0  0  0  0  0  0  0  0
  1  2  1  0
  1  8  1  0
  2  4  1  0
  3  1  2  0
  5  6  1  0
  7  8  2  0
  7  9  1  0
  8 10  1  0
  9  5  2  0
 10 11  1  0
 10  6  2  0
 12  9  1  0
 13 12  1  0
 14 19  1  0
 15 16  1  0
 15 14  1  0
 17 16  1  0
 17 24  1  0
 17 18  1  0
 19 13  1  0
 19 18  1  0
 20 13  2  0
 21 22  2  0
 22 41  1  0
 23 22  1  0
 23 26  1  0
 24 21  1  0
 24 25  1  0
 25 23  2  0
 26 27  1  0
 27 28  2  0
 29 32  1  0
 29 28  1  0
 30 29  2  0
 31 30  1  0
 31 26  2  0
 32 33  1  0
 33 34  1  0
 34 35  2  0
 36 35  1  0
 36 40  1  0
 37 36  2  0
 38 33  2  0
 38 37  1  0
 39 38  1  0
 41 42  1  0
 42 45  1  0
 42 44  1  0
 43 41  2  0
 46 47  1  0
 46 21  1  0
 48 46  1  0
 49  2  1  0
 49 50  1  0
 51 53  1  0
 51 50  1  0
 52 63  2  0
 53 58  1  0
 54 62  1  0
 54 64  1  0
 55 61  1  0
 55 57  1  0
 56 62  1  0
 57 56  1  0
 58 57  2  0
 59 53  2  0
 60 59  1  0
 60 55  2  0
 61 54  1  0
 62 52  1  0
 64 66  2  0
 65 64  1  0
 67 65  1  0
 68 77  2  0
 68 73  1  0
 69 65  1  0
 69 73  1  0
 70 69  1  0
 71 72  1  0
 71 70  1  0
 72 68  1  0
 73 74  2  0
 74 75  1  0
 76 75  2  0
 77 76  1  0
 78 52  1  0
 78 83  1  0
 78 79  1  0
 79 82  1  1
 79 80  1  0
 81 79  1  0
 83 86  1  0
 84 88  1  0
 84 83  1  0
 85 84  2  0
 88 87  1  0
 90 88  1  0
 90 91  1  0
 90 89  1  0
M  ISO  4  12 100  13 100  50 101  51 101
M  END
>  <TORSDO>  (93) 
F 20

>  <SCORE>  (93) 
-14.140

>  <name>  (93) 
92

>  <ligand_id>  (93) 
92

>  <original_smiles>  (93) 
[H]c1c([H])c([H])c2c(c1[H])C([H])([H])C([H])([H])C([H])([H])C2([H])N([H])C(=O)C1([H])N(C(=O)C([H])(N([H])C(=O)C([H])(N([H])C([H])([H])[H])C([H])([H])[H])C(C([H])([H])[H])(C([H])([H])[H])C([H])([H])[H])C([H])([H])c2c([H])c(OC([H])([H])C([H])([H])N([H])C(=O)c3c([H])c(C([H])([H])C(=O)N4C([H])([H])C([H])([H])C([H])([H])C([H])(n5nc(-c6c([H])c([H])c(Oc7c([H])c([H])c(F)c([H])c7F)c([H])c6[H])c(C(=O)N([H])[H])c5N([H])[H])C4([H])[H])c([H])c([H])c3C([H])([H])[H])c([H])c([H])c2C1([H])[H]

>  <smiles>  (93) 
[H]c1c([H])c([H])c2c(c1[H])C([H])([H])C([H])([H])C([H])([H])C2([H])N([H])C(=O)C1([H])N(C(=O)C([H])(N([H])C(=O)C([H])(N([H])C([H])([H])[H])C([H])([H])[H])C(C([H])([H])[H])(C([H])([H])[H])C([H])([H])[H])C([H])([H])c2c([H])c(OC([H])([H])C([H])([H])N([H])C(=O)c3c([H])c(C([H])([H])C(=O)N4C([H])([H])C([H])([H])C([H])([H])C([H])(n5nc(-c6c([H])c([H])c(Oc7c([H])c([H])c(F)c([H])c7F)c([H])c6[H])c(C(=O)N([H])[H])c5N([H])[H])C4([H])[H])c([H])c([H])c3C([H])([H])[H])c([H])c([H])c2C1([H])[H]

$$$$
93:0:0
     RDKit          3D

 92101  0  0  1  0  0  0  0  0999 V2000
  -31.7180  -21.6590   21.2400 C   0  0  0  0  0  3  0  0  0  0  0  0
  -31.1850  -20.3570   21.1770 C   0  0  0  0  0  3  0  0  0  0  0  0
  -30.9540  -22.7460   20.7870 C   0  0  0  0  0  0  0  0  0  0  0  0
  -29.6420  -22.6110   20.3270 C   0  0  0  0  0  0  0  0  0  0  0  0
  -29.1030  -21.2640   20.2490 C   0  0  0  0  0  0  0  0  0  0  0  0
  -29.8910  -20.1010   20.6580 C   0  0  0  0  0  0  0  0  0  0  0  0
  -31.4960  -24.1290   20.5680 C   0  0  0  0  0  2  0  0  0  0  0  0
  -30.5440  -24.6950   19.5040 C   0  0  0  0  0  2  0  0  0  0  0  0
  -29.1710  -24.0120   19.7330 C   0  0  0  0  0  3  0  0  0  0  0  0
  -27.7150  -21.0540   19.6720 C   0  0  0  0  0  1  0  0  0  0  0  0
  -29.4480  -18.7260   20.5600 N   0  0  0  0  0  0  0  0  0  0  0  0
  -28.5200  -18.5930   20.1670 H   0  0  0  0  0  0  0  0  0  0  0  0
  -30.3610  -17.5110   20.5340 C   0  0  0  0  0  3  0  0  0  0  0  0
  -29.7340  -16.0470   20.7770 C   0  0  0  0  0  3  0  0  0  0  0  0
  -30.5670  -14.7310   20.4010 C   0  0  0  0  0  0  0  0  0  0  0  0
  -30.3770  -12.4790   19.3340 C   0  0  0  0  0  2  0  0  0  0  0  0
  -29.4280  -12.6010   18.1200 C   0  0  0  0  0  2  0  0  0  0  0  0
  -27.9590  -12.4200   18.5520 C   0  0  0  0  0  2  0  0  0  0  0  0
  -27.5960  -13.2790   19.7920 C   0  0  0  0  0  3  0  0  0  0  0  0
  -28.6600  -13.1520   20.9020 C   0  0  0  0  0  2  0  0  0  0  0  0
  -29.9660  -13.4970   20.3250 N   0  0  0  0  0  0  0  0  0  0  0  0
  -31.7370  -14.8600   20.0240 O   0  0  0  0  0  0  0  0  0  0  0  0
  -25.2080  -13.8650   20.5320 C   0  0  0  0  0  0  0  0  0  0  0  0
  -24.1460  -13.0870   20.9050 C   0  0  0  0  0  0  0  0  0  0  0  0
  -24.6150  -11.7370   20.8680 C   0  0  0  0  0  0  0  0  0  0  0  0
  -26.2540  -12.9890   20.2870 N   0  0  0  0  0  0  0  0  0  0  0  0
  -25.9030  -11.7040   20.5520 N   0  0  0  0  0  0  0  0  0  0  0  0
  -23.8940  -10.4720   21.0580 C   0  0  0  0  0  0  0  0  0  0  0  0
  -24.3360   -9.5010   21.9840 C   0  0  0  0  0  3  0  0  0  0  0  0
  -23.6160   -8.3010   22.1610 C   0  0  0  0  0  3  0  0  0  0  0  0
  -22.4390   -8.0610   21.4110 C   0  0  0  0  0  0  0  0  0  0  0  0
  -22.0170   -9.0200   20.4740 C   0  0  0  0  0  3  0  0  0  0  0  0
  -22.7380  -10.2130   20.2960 C   0  0  0  0  0  3  0  0  0  0  0  0
  -21.6900   -6.9130   21.4990 O   0  0  0  0  0  0  0  0  0  0  0  0
  -21.6510   -6.1640   22.6480 C   0  0  0  0  0  0  0  0  0  0  0  0
  -21.2300   -6.7110   23.8790 C   0  0  0  0  0  3  0  0  0  0  0  0
  -21.1390   -5.8880   25.0190 C   0  0  0  0  0  3  0  0  0  0  0  0
  -21.4590   -4.5200   24.9290 C   0  0  0  0  0  0  0  0  0  0  0  0
  -21.8730   -3.9730   23.7030 C   0  0  0  0  0  3  0  0  0  0  0  0
  -21.9660   -4.7930   22.5640 C   0  0  0  0  0  0  0  0  0  0  0  0
  -22.3450   -4.2570   21.3790 F   0  0  0  0  0  0  0  0  0  0  0  0
  -21.3640   -3.7280   26.0230 F   0  0  0  0  0  0  0  0  0  0  0  0
  -22.7480  -13.5570   21.1840 C   0  0  0  0  0  0  0  0  0  0  0  0
  -22.0250  -12.8530   22.0460 N   0  0  0  0  0  0  0  0  0  0  0  0
  -22.3060  -14.5850   20.6720 O   0  0  0  0  0  0  0  0  0  0  0  0
  -22.3950  -12.0210   22.4820 H   0  0  0  0  0  0  0  0  0  0  0  0
  -21.0860  -13.1490   22.2750 H   0  0  0  0  0  0  0  0  0  0  0  0
  -25.3680  -15.2360   20.3610 N   0  0  0  0  0  0  0  0  0  0  0  0
  -24.6030  -15.8910   20.4840 H   0  0  0  0  0  0  0  0  0  0  0  0
  -26.2220  -15.6800   20.0450 H   0  0  0  0  0  0  0  0  0  0  0  0
  -28.2640  -25.0470   20.5660 C   0  0  0  0  0  2  0  0  0  0  0  0
  -28.3450  -26.4970   20.2050 O   0  0  0  0  0  0  0  0  0  0  0  0
  -24.5920  -31.8930   23.2490 C   0  0  0  0  0  0  0  0  0  0  0  0
  -27.2050  -27.3160   20.2130 C   0  0  0  0  0  0  0  0  0  0  0  0
  -23.3870  -30.4810   21.6210 C   0  0  0  0  0  3  0  0  0  0  0  0
  -24.8370  -28.9230   20.2000 C   0  0  0  0  0  0  0  0  0  0  0  0
  -25.9260  -30.8000   21.4340 C   0  0  0  0  0  2  0  0  0  0  0  0
  -26.0050  -29.4190   20.7910 C   0  0  0  0  0  0  0  0  0  0  0  0
  -27.1940  -28.6290   20.7810 C   0  0  0  0  0  3  0  0  0  0  0  0
  -26.0160  -26.8700   19.6020 C   0  0  0  0  0  3  0  0  0  0  0  0
  -24.8440  -27.6550   19.5950 C   0  0  0  0  0  3  0  0  0  0  0  0
  -23.5990  -29.7970   20.2450 C   0  0  0  0  0  2  0  0  0  0  0  0
  -24.6550  -31.0720   22.1610 N   0  0  0  0  0  0  0  0  0  0  0  0
  -23.5040  -32.1970   23.7570 O   0  0  0  0  0  0  0  0  0  0  0  0
  -22.7250  -29.4690   22.5860 C   0  0  0  0  0  0  0  0  0  0  0  0
  -21.4000  -29.2860   22.4570 N   0  0  0  0  0  0  0  0  0  0  0  0
  -23.4030  -28.8480   23.4100 O   0  0  0  0  0  0  0  0  0  0  0  0
  -20.9110  -29.8380   21.7660 H   0  0  0  0  0  0  0  0  0  0  0  0
  -18.0250  -28.0790   22.9490 C   0  0  0  0  0  0  0  0  0  0  0  0
  -20.5820  -28.3480   23.2270 C   0  0  0  0  0  3  0  0  0  0  0  0
  -20.6900  -26.9150   22.6550 C   0  0  0  0  0  2  0  0  0  0  0  0
  -19.5930  -26.5860   21.6380 C   0  0  0  0  0  2  0  0  0  0  0  0
  -18.2090  -26.7280   22.2770 C   0  0  0  0  0  2  0  0  0  0  0  0
  -19.1390  -28.8460   23.3820 C   0  0  0  0  0  0  0  0  0  0  0  0
  -18.9140  -30.1090   23.9700 C   0  0  0  0  0  3  0  0  0  0  0  0
  -17.6070  -30.6060   24.1310 C   0  0  0  0  0  3  0  0  0  0  0  0
  -16.5070  -29.8350   23.7160 C   0  0  0  0  0  3  0  0  0  0  0  0
  -16.7160  -28.5740   23.1310 C   0  0  0  0  0  3  0  0  0  0  0  0
  -25.8760  -32.5160   23.8820 C   0  0  0  0  0  3  0  0  0  0  0  0
  -26.3810  -31.7500   25.1660 C   0  0  1  0  0  0  0  0  0  0  0  0
  -25.2790  -31.5250   26.2290 C   0  0  0  0  0  1  0  0  0  0  0  0
  -26.9590  -30.3670   24.7890 C   0  0  0  0  0  1  0  0  0  0  0  0
  -27.5320  -32.5420   25.8310 C   0  0  0  0  0  1  0  0  0  0  0  0
  -25.5730  -33.9170   24.2050 N   0  0  0  0  0  0  0  0  0  0  0  0
  -25.9100  -34.9640   23.4420 C   0  0  0  0  0  0  0  0  0  0  0  0
  -26.5800  -34.8520   22.4110 O   0  0  0  0  0  0  0  0  0  0  0  0
  -24.9790  -34.0790   25.0050 H   0  0  0  0  0  0  0  0  0  0  0  0
  -24.1900  -36.7640   23.0740 C   0  0  0  0  0  1  0  0  0  0  0  0
  -25.4280  -36.3580   23.8900 C   0  0  0  0  0  3  0  0  0  0  0  0
  -27.5650  -37.2370   24.7210 C   0  0  0  0  0  1  0  0  0  0  0  0
  -26.4660  -37.4050   23.7740 N   0  0  0  0  0  0  0  0  0  0  0  0
  -26.0640  -38.3280   23.9150 H   0  0  0  0  0  0  0  0  0  0  0  0
  2  1  1  0
  3  1  2  0
  4  3  1  0
  5  4  2  0
  5  6  1  0
  6  2  2  0
  7  3  1  0
  8  9  1  0
  8  7  1  0
  9  4  1  0
  9 51  1  0
 10  5  1  0
 11  6  1  0
 12 11  1  0
 13 11  1  0
 13 14  2  0
 15 14  1  0
 16 21  1  0
 17 18  1  0
 17 16  1  0
 19 18  1  0
 19 26  1  0
 19 20  1  0
 21 15  1  0
 21 20  1  0
 22 15  2  0
 23 24  2  0
 24 43  1  0
 25 24  1  0
 25 28  1  0
 26 23  1  0
 26 27  1  0
 27 25  2  0
 28 29  1  0
 29 30  2  0
 31 34  1  0
 31 30  1  0
 32 31  2  0
 33 32  1  0
 33 28  2  0
 34 35  1  0
 35 36  1  0
 36 37  2  0
 38 37  1  0
 38 42  1  0
 39 38  2  0
 40 35  2  0
 40 39  1  0
 41 40  1  0
 43 44  1  0
 44 47  1  0
 44 46  1  0
 45 43  2  0
 48 49  1  0
 48 23  1  0
 50 48  1  0
 52 54  1  0
 52 51  1  0
 53 64  2  0
 54 59  1  0
 55 63  1  0
 55 65  1  0
 56 62  1  0
 56 58  1  0
 57 63  1  0
 58 57  1  0
 59 58  2  0
 60 54  2  0
 61 60  1  0
 61 56  2  0
 62 55  1  0
 63 53  1  0
 65 67  2  0
 66 65  1  0
 68 66  1  0
 69 78  2  0
 69 74  1  0
 70 66  1  0
 70 74  1  0
 71 70  1  0
 72 73  1  0
 72 71  1  0
 73 69  1  0
 74 75  2  0
 75 76  1  0
 77 76  2  0
 78 77  1  0
 79 53  1  0
 79 84  1  0
 79 80  1  0
 80 83  1  1
 80 81  1  0
 82 80  1  0
 84 87  1  0
 85 89  1  0
 85 84  1  0
 86 85  2  0
 89 88  1  0
 91 89  1  0
 91 92  1  0
 91 90  1  0
M  ISO  4  14 100  15 100  51 101  52 101
M  END
>  <TORSDO>  (94) 
F 20

>  <SCORE>  (94) 
-14.013

>  <name>  (94) 
93

>  <ligand_id>  (94) 
93

>  <original_smiles>  (94) 
[H]c1c([H])c([H])c2c(c1[H])C([H])([H])C([H])([H])C([H])([H])C2([H])N([H])C(=O)C1([H])N(C(=O)C([H])(N([H])C(=O)C([H])(N([H])C([H])([H])[H])C([H])([H])[H])C(C([H])([H])[H])(C([H])([H])[H])C([H])([H])[H])C([H])([H])c2c([H])c(OC([H])([H])C3([H])c4c(C([H])([H])[H])c(N([H])C([H])([H])C([H])([H])C(=O)N5C([H])([H])C([H])([H])C([H])([H])C([H])(n6nc(-c7c([H])c([H])c(Oc8c([H])c([H])c(F)c([H])c8F)c([H])c7[H])c(C(=O)N([H])[H])c6N([H])[H])C5([H])[H])c([H])c([H])c4C([H])([H])C3([H])[H])c([H])c([H])c2C1([H])[H]

>  <smiles>  (94) 
[H]c1c([H])c([H])c2c(c1[H])C([H])([H])C([H])([H])C([H])([H])C2([H])N([H])C(=O)C1([H])N(C(=O)C([H])(N([H])C(=O)C([H])(N([H])C([H])([H])[H])C([H])([H])[H])C(C([H])([H])[H])(C([H])([H])[H])C([H])([H])[H])C([H])([H])c2c([H])c(OC([H])([H])C3([H])c4c(C([H])([H])[H])c(N([H])C([H])([H])C([H])([H])C(=O)N5C([H])([H])C([H])([H])C([H])([H])C([H])(n6nc(-c7c([H])c([H])c(Oc8c([H])c([H])c(F)c([H])c8F)c([H])c7[H])c(C(=O)N([H])[H])c6N([H])[H])C5([H])[H])c([H])c([H])c4C([H])([H])C3([H])[H])c([H])c([H])c2C1([H])[H]

$$$$
94:0:0
     RDKit          3D

 87 95  0  0  1  0  0  0  0  0999 V2000
  -28.7910  -22.7700   20.7670 C   0  0  0  0  0  2  0  0  0  0  0  0
  -28.4610  -24.0960   19.9900 C   0  0  0  0  0  3  0  0  0  0  0  0
  -28.3550  -25.3810   20.8770 C   0  0  0  0  0  3  0  0  0  0  0  0
  -28.4020  -26.6540   20.1820 O   0  0  0  0  0  0  0  0  0  0  0  0
  -24.6240  -31.9110   23.2510 C   0  0  0  0  0  0  0  0  0  0  0  0
  -27.2490  -27.4180   20.1980 C   0  0  0  0  0  0  0  0  0  0  0  0
  -23.4130  -30.4980   21.6230 C   0  0  0  0  0  3  0  0  0  0  0  0
  -24.8630  -28.9480   20.2010 C   0  0  0  0  0  0  0  0  0  0  0  0
  -25.9430  -30.8440   21.4210 C   0  0  0  0  0  2  0  0  0  0  0  0
  -26.0250  -29.4700   20.7830 C   0  0  0  0  0  0  0  0  0  0  0  0
  -27.2250  -28.7150   20.7690 C   0  0  0  0  0  3  0  0  0  0  0  0
  -26.0690  -26.9150   19.6120 C   0  0  0  0  0  3  0  0  0  0  0  0
  -24.8810  -27.6730   19.6100 C   0  0  0  0  0  3  0  0  0  0  0  0
  -23.6200  -29.8110   20.2470 C   0  0  0  0  0  2  0  0  0  0  0  0
  -24.6790  -31.0980   22.1580 N   0  0  0  0  0  0  0  0  0  0  0  0
  -23.5380  -32.2110   23.7670 O   0  0  0  0  0  0  0  0  0  0  0  0
  -22.7620  -29.4820   22.5910 C   0  0  0  0  0  0  0  0  0  0  0  0
  -21.4390  -29.2880   22.4570 N   0  0  0  0  0  0  0  0  0  0  0  0
  -23.4440  -28.8700   23.4170 O   0  0  0  0  0  0  0  0  0  0  0  0
  -20.9490  -29.8340   21.7620 H   0  0  0  0  0  0  0  0  0  0  0  0
  -18.0770  -28.0430   22.9160 C   0  0  0  0  0  0  0  0  0  0  0  0
  -20.6240  -28.3490   23.2290 C   0  0  0  0  0  3  0  0  0  0  0  0
  -20.7610  -26.9100   22.6780 C   0  0  0  0  0  2  0  0  0  0  0  0
  -19.6830  -26.5530   21.6500 C   0  0  0  0  0  2  0  0  0  0  0  0
  -18.2880  -26.6860   22.2660 C   0  0  0  0  0  2  0  0  0  0  0  0
  -19.1750  -28.8310   23.3540 C   0  0  0  0  0  0  0  0  0  0  0  0
  -18.9240  -30.1000   23.9180 C   0  0  0  0  0  3  0  0  0  0  0  0
  -17.6090  -30.5820   24.0520 C   0  0  0  0  0  3  0  0  0  0  0  0
  -16.5260  -29.7920   23.6320 C   0  0  0  0  0  3  0  0  0  0  0  0
  -16.7600  -28.5250   23.0700 C   0  0  0  0  0  3  0  0  0  0  0  0
  -25.9120  -32.5340   23.8750 C   0  0  0  0  0  3  0  0  0  0  0  0
  -25.6090  -33.9330   24.2060 N   0  0  0  0  0  0  0  0  0  0  0  0
  -25.9340  -34.9830   23.4410 C   0  0  0  0  0  0  0  0  0  0  0  0
  -26.5960  -34.8760   22.4040 O   0  0  0  0  0  0  0  0  0  0  0  0
  -25.0210  -34.0900   25.0130 H   0  0  0  0  0  0  0  0  0  0  0  0
  -24.1970  -36.7690   23.1010 C   0  0  0  0  0  1  0  0  0  0  0  0
  -25.4500  -36.3720   23.8970 C   0  0  0  0  0  3  0  0  0  0  0  0
  -27.5960  -37.2630   24.6910 C   0  0  0  0  0  1  0  0  0  0  0  0
  -26.4780  -37.4270   23.7650 N   0  0  0  0  0  0  0  0  0  0  0  0
  -26.0720  -38.3460   23.9180 H   0  0  0  0  0  0  0  0  0  0  0  0
  -26.4300  -31.7620   25.1510 C   0  0  1  0  0  0  0  0  0  0  0  0
  -25.3390  -31.5280   26.2210 C   0  0  0  0  0  1  0  0  0  0  0  0
  -27.0090  -30.3830   24.7570 C   0  0  0  0  0  1  0  0  0  0  0  0
  -27.5860  -32.5530   25.8090 C   0  0  0  0  0  1  0  0  0  0  0  0
  -28.7130  -21.4480   19.9330 C   0  0  0  0  0  2  0  0  0  0  0  0
  -29.2580  -20.2750   20.5910 O   0  0  0  0  0  0  0  0  0  0  0  0
  -28.9360  -19.0320   19.9200 C   0  0  0  0  0  2  0  0  0  0  0  0
  -30.6280  -14.5790   20.2960 C   0  0  0  0  0  0  0  0  0  0  0  0
  -30.3600  -12.3650   19.2450 C   0  0  0  0  0  2  0  0  0  0  0  0
  -29.4010  -12.5350   18.0470 C   0  0  0  0  0  2  0  0  0  0  0  0
  -27.9330  -12.3950   18.4990 C   0  0  0  0  0  2  0  0  0  0  0  0
  -27.6030  -13.2520   19.7510 C   0  0  0  0  0  3  0  0  0  0  0  0
  -28.6800  -13.0860   20.8490 C   0  0  0  0  0  2  0  0  0  0  0  0
  -29.9840  -13.3790   20.2410 N   0  0  0  0  0  0  0  0  0  0  0  0
  -31.8140  -14.7000   19.9820 O   0  0  0  0  0  0  0  0  0  0  0  0
  -29.9240  -16.6960   19.1620 C   0  0  0  0  0  2  0  0  0  0  0  0
  -29.4450  -16.6660   21.2130 C   0  0  0  0  0  2  0  0  0  0  0  0
  -29.8350  -17.7910   20.2310 C   0  0  0  0  0  3  0  0  0  0  0  0
  -29.7940  -15.6530   20.1940 N   0  0  0  0  0  0  0  0  0  0  0  0
  -25.2230  -13.8610   20.5060 C   0  0  0  0  0  0  0  0  0  0  0  0
  -24.1590  -13.0900   20.8900 C   0  0  0  0  0  0  0  0  0  0  0  0
  -24.6180  -11.7380   20.8530 C   0  0  0  0  0  0  0  0  0  0  0  0
  -26.2620  -12.9780   20.2580 N   0  0  0  0  0  0  0  0  0  0  0  0
  -25.9040  -11.6960   20.5280 N   0  0  0  0  0  0  0  0  0  0  0  0
  -23.8940  -10.4770   21.0540 C   0  0  0  0  0  0  0  0  0  0  0  0
  -24.3520   -9.4990   21.9640 C   0  0  0  0  0  3  0  0  0  0  0  0
  -23.6270   -8.3030   22.1530 C   0  0  0  0  0  3  0  0  0  0  0  0
  -22.4310   -8.0750   21.4320 C   0  0  0  0  0  0  0  0  0  0  0  0
  -21.9920   -9.0420   20.5100 C   0  0  0  0  0  3  0  0  0  0  0  0
  -22.7170  -10.2300   20.3200 C   0  0  0  0  0  3  0  0  0  0  0  0
  -21.6760   -6.9320   21.5310 O   0  0  0  0  0  0  0  0  0  0  0  0
  -21.6730   -6.1680   22.6710 C   0  0  0  0  0  0  0  0  0  0  0  0
  -21.3180   -6.7060   23.9270 C   0  0  0  0  0  3  0  0  0  0  0  0
  -21.2610   -5.8700   25.0600 C   0  0  0  0  0  3  0  0  0  0  0  0
  -21.5490   -4.4970   24.9370 C   0  0  0  0  0  0  0  0  0  0  0  0
  -21.8980   -3.9600   23.6860 C   0  0  0  0  0  3  0  0  0  0  0  0
  -21.9570   -4.7930   22.5550 C   0  0  0  0  0  0  0  0  0  0  0  0
  -22.2720   -4.2660   21.3470 F   0  0  0  0  0  0  0  0  0  0  0  0
  -21.4880   -3.6920   26.0230 F   0  0  0  0  0  0  0  0  0  0  0  0
  -22.7670  -13.5700   21.1800 C   0  0  0  0  0  0  0  0  0  0  0  0
  -22.0520  -12.8770   22.0610 N   0  0  0  0  0  0  0  0  0  0  0  0
  -22.3210  -14.5930   20.6630 O   0  0  0  0  0  0  0  0  0  0  0  0
  -22.4250  -12.0490   22.4990 H   0  0  0  0  0  0  0  0  0  0  0  0
  -21.1180  -13.1800   22.2980 H   0  0  0  0  0  0  0  0  0  0  0  0
  -25.3900  -15.2310   20.3260 N   0  0  0  0  0  0  0  0  0  0  0  0
  -24.6330  -15.8940   20.4530 H   0  0  0  0  0  0  0  0  0  0  0  0
  -26.2480  -15.6620   20.0060 H   0  0  0  0  0  0  0  0  0  0  0  0
  2  1  1  0
  2  3  2  0
  4  6  1  0
  4  3  1  0
  5 16  2  0
  6 11  1  0
  7 15  1  0
  7 17  1  0
  8 14  1  0
  8 10  1  0
  9 15  1  0
 10  9  1  0
 11 10  2  0
 12  6  2  0
 13 12  1  0
 13  8  2  0
 14  7  1  0
 15  5  1  0
 17 19  2  0
 18 17  1  0
 20 18  1  0
 21 30  2  0
 21 26  1  0
 22 18  1  0
 22 26  1  0
 23 22  1  0
 24 25  1  0
 24 23  1  0
 25 21  1  0
 26 27  2  0
 27 28  1  0
 29 28  2  0
 30 29  1  0
 31  5  1  0
 31 32  1  0
 31 41  1  0
 32 35  1  0
 33 37  1  0
 33 32  1  0
 34 33  2  0
 37 36  1  0
 39 37  1  0
 39 40  1  0
 39 38  1  0
 41 44  1  1
 41 42  1  0
 43 41  1  0
 45 46  1  0
 45  1  1  0
 47 46  1  0
 49 54  1  0
 50 51  1  0
 50 49  1  0
 52 51  1  0
 52 63  1  0
 52 53  1  0
 54 48  1  0
 54 53  1  0
 55 48  2  0
 56 59  1  0
 56 58  1  0
 58 47  1  0
 58 57  1  0
 59 48  1  0
 59 57  1  0
 60 61  2  0
 61 80  1  0
 62 61  1  0
 62 65  1  0
 63 60  1  0
 63 64  1  0
 64 62  2  0
 65 66  1  0
 66 67  2  0
 68 71  1  0
 68 67  1  0
 69 68  2  0
 70 69  1  0
 70 65  2  0
 71 72  1  0
 72 73  1  0
 73 74  2  0
 75 74  1  0
 75 79  1  0
 76 75  2  0
 77 72  2  0
 77 76  1  0
 78 77  1  0
 80 81  1  0
 81 84  1  0
 81 83  1  0
 82 80  2  0
 85 86  1  0
 85 60  1  0
 87 85  1  0
M  ISO  4   3 101   4 101  48 100  59 100
M  END
>  <TORSDO>  (95) 
F 21

>  <SCORE>  (95) 
-13.401

>  <name>  (95) 
94

>  <ligand_id>  (95) 
94

>  <original_smiles>  (95) 
[H]c1c([H])c([H])c2c(c1[H])C([H])([H])C([H])([H])C([H])([H])C2([H])N([H])C(=O)C1([H])N(C(=O)C([H])(N([H])C(=O)C([H])(N([H])C([H])([H])[H])C([H])([H])[H])C(C([H])([H])[H])(C([H])([H])[H])C([H])([H])[H])C([H])([H])c2c([H])c(OC([H])([H])C([H])([H])C([H])([H])C([H])([H])OC([H])([H])C3([H])C([H])([H])N(C(=O)N4C([H])([H])C([H])([H])C([H])([H])C([H])(n5nc(-c6c([H])c([H])c(Oc7c([H])c([H])c(F)c([H])c7F)c([H])c6[H])c(C(=O)N([H])[H])c5N([H])[H])C4([H])[H])C3([H])[H])c([H])c([H])c2C1([H])[H]

>  <smiles>  (95) 
[H]c1c([H])c([H])c2c(c1[H])C([H])([H])C([H])([H])C([H])([H])C2([H])N([H])C(=O)C1([H])N(C(=O)C([H])(N([H])C(=O)C([H])(N([H])C([H])([H])[H])C([H])([H])[H])C(C([H])([H])[H])(C([H])([H])[H])C([H])([H])[H])C([H])([H])c2c([H])c(OC([H])([H])C([H])([H])C([H])([H])C([H])([H])OC([H])([H])C3([H])C([H])([H])N(C(=O)N4C([H])([H])C([H])([H])C([H])([H])C([H])(n5nc(-c6c([H])c([H])c(Oc7c([H])c([H])c(F)c([H])c7F)c([H])c6[H])c(C(=O)N([H])[H])c5N([H])[H])C4([H])[H])C3([H])[H])c([H])c([H])c2C1([H])[H]

$$$$
95:0:0
     RDKit          3D

 90 98  0  0  1  0  0  0  0  0999 V2000
  -28.8300  -21.0690   20.0680 N   0  0  0  0  0  4  0  0  0  0  0  0
  -27.8410  -20.8730   20.0990 H   0  0  0  0  0  0  0  0  0  0  0  0
  -29.0700  -21.1480   19.0940 H   0  0  0  0  0  0  0  0  0  0  0  0
  -29.8990  -17.2850   20.4510 C   0  0  0  0  0  0  0  0  0  0  0  0
  -31.1540  -18.0110   20.1620 C   0  0  0  0  0  0  0  0  0  0  0  0
  -29.6710  -15.9180   20.5770 C   0  0  0  0  0  3  0  0  0  0  0  0
  -28.8380  -18.4260   20.5390 C   0  0  0  0  0  2  0  0  0  0  0  0
  -30.9270  -19.5300   20.0090 C   0  0  0  0  0  2  0  0  0  0  0  0
  -29.5520  -19.8400   20.6460 C   0  0  0  0  0  3  0  0  0  0  0  0
  -32.2850  -17.5360   20.0600 O   0  0  0  0  0  0  0  0  0  0  0  0
  -30.5710  -14.7200   20.3720 C   0  0  0  0  0  0  0  0  0  0  0  0
  -30.3930  -12.4390   19.3780 C   0  0  0  0  0  2  0  0  0  0  0  0
  -29.4550  -12.5280   18.1510 C   0  0  0  0  0  2  0  0  0  0  0  0
  -27.9790  -12.3610   18.5700 C   0  0  0  0  0  2  0  0  0  0  0  0
  -27.6060  -13.2410   19.7920 C   0  0  0  0  0  3  0  0  0  0  0  0
  -28.6620  -13.1170   20.9110 C   0  0  0  0  0  2  0  0  0  0  0  0
  -29.9660  -13.4810   20.3390 N   0  0  0  0  0  0  0  0  0  0  0  0
  -31.7600  -14.7990   20.0530 O   0  0  0  0  0  0  0  0  0  0  0  0
  -25.2170  -13.8420   20.5120 C   0  0  0  0  0  0  0  0  0  0  0  0
  -24.1500  -13.0710   20.8830 C   0  0  0  0  0  0  0  0  0  0  0  0
  -24.6120  -11.7190   20.8570 C   0  0  0  0  0  0  0  0  0  0  0  0
  -26.2600  -12.9600   20.2790 N   0  0  0  0  0  0  0  0  0  0  0  0
  -25.9020  -11.6790   20.5510 N   0  0  0  0  0  0  0  0  0  0  0  0
  -23.8860  -10.4570   21.0480 C   0  0  0  0  0  0  0  0  0  0  0  0
  -24.3270   -9.4840   21.9710 C   0  0  0  0  0  3  0  0  0  0  0  0
  -23.6010   -8.2860   22.1490 C   0  0  0  0  0  3  0  0  0  0  0  0
  -22.4190   -8.0550   21.4060 C   0  0  0  0  0  0  0  0  0  0  0  0
  -21.9960   -9.0180   20.4730 C   0  0  0  0  0  3  0  0  0  0  0  0
  -22.7230  -10.2070   20.2910 C   0  0  0  0  0  3  0  0  0  0  0  0
  -21.6630   -6.9110   21.4970 O   0  0  0  0  0  0  0  0  0  0  0  0
  -21.6390   -6.1520   22.6390 C   0  0  0  0  0  0  0  0  0  0  0  0
  -21.2560   -6.6930   23.8860 C   0  0  0  0  0  3  0  0  0  0  0  0
  -21.1800   -5.8600   25.0210 C   0  0  0  0  0  3  0  0  0  0  0  0
  -21.4750   -4.4890   24.9090 C   0  0  0  0  0  0  0  0  0  0  0  0
  -21.8500   -3.9480   23.6670 C   0  0  0  0  0  3  0  0  0  0  0  0
  -21.9290   -4.7770   22.5350 C   0  0  0  0  0  0  0  0  0  0  0  0
  -22.2710   -4.2460   21.3370 F   0  0  0  0  0  0  0  0  0  0  0  0
  -21.3920   -3.6870   25.9970 F   0  0  0  0  0  0  0  0  0  0  0  0
  -22.7500  -13.5480   21.1480 C   0  0  0  0  0  0  0  0  0  0  0  0
  -22.0180  -12.8550   22.0120 N   0  0  0  0  0  0  0  0  0  0  0  0
  -22.3150  -14.5720   20.6230 O   0  0  0  0  0  0  0  0  0  0  0  0
  -22.3800  -12.0250   22.4590 H   0  0  0  0  0  0  0  0  0  0  0  0
  -21.0810  -13.1600   22.2330 H   0  0  0  0  0  0  0  0  0  0  0  0
  -25.3820  -15.2130   20.3290 N   0  0  0  0  0  0  0  0  0  0  0  0
  -24.6110  -15.8650   20.4300 H   0  0  0  0  0  0  0  0  0  0  0  0
  -26.2250  -15.6490   19.9800 H   0  0  0  0  0  0  0  0  0  0  0  0
  -29.0040  -22.4380   20.7360 C   0  0  0  0  0  3  0  0  0  0  0  0
  -28.5160  -23.7690   19.9590 C   0  0  0  0  0  3  0  0  0  0  0  0
  -28.2760  -25.1180   20.8010 C   0  0  0  0  0  2  0  0  0  0  0  0
  -28.3590  -26.4740   20.1890 O   0  0  0  0  0  0  0  0  0  0  0  0
  -24.6140  -31.8810   23.2390 C   0  0  0  0  0  0  0  0  0  0  0  0
  -27.2320  -27.3090   20.2060 C   0  0  0  0  0  0  0  0  0  0  0  0
  -23.4110  -30.4670   21.6110 C   0  0  0  0  0  3  0  0  0  0  0  0
  -24.8640  -28.9110   20.1900 C   0  0  0  0  0  0  0  0  0  0  0  0
  -25.9490  -30.7910   21.4240 C   0  0  0  0  0  2  0  0  0  0  0  0
  -26.0330  -29.4090   20.7820 C   0  0  0  0  0  0  0  0  0  0  0  0
  -27.2220  -28.6210   20.7740 C   0  0  0  0  0  3  0  0  0  0  0  0
  -26.0440  -26.8570   19.5990 C   0  0  0  0  0  3  0  0  0  0  0  0
  -24.8720  -27.6410   19.5880 C   0  0  0  0  0  3  0  0  0  0  0  0
  -23.6250  -29.7840   20.2350 C   0  0  0  0  0  2  0  0  0  0  0  0
  -24.6790  -31.0610   22.1500 N   0  0  0  0  0  0  0  0  0  0  0  0
  -23.5250  -32.1830   23.7470 O   0  0  0  0  0  0  0  0  0  0  0  0
  -22.7510  -29.4550   22.5770 C   0  0  0  0  0  0  0  0  0  0  0  0
  -21.4240  -29.2770   22.4520 N   0  0  0  0  0  0  0  0  0  0  0  0
  -23.4310  -28.8290   23.3940 O   0  0  0  0  0  0  0  0  0  0  0  0
  -20.9340  -29.8350   21.7660 H   0  0  0  0  0  0  0  0  0  0  0  0
  -18.0480  -28.0790   22.9570 C   0  0  0  0  0  0  0  0  0  0  0  0
  -20.6060  -28.3400   23.2240 C   0  0  0  0  0  3  0  0  0  0  0  0
  -20.7080  -26.9080   22.6470 C   0  0  0  0  0  2  0  0  0  0  0  0
  -19.6040  -26.5860   21.6340 C   0  0  0  0  0  2  0  0  0  0  0  0
  -18.2230  -26.7290   22.2810 C   0  0  0  0  0  2  0  0  0  0  0  0
  -19.1670  -28.8410   23.3850 C   0  0  0  0  0  0  0  0  0  0  0  0
  -18.9480  -30.1030   23.9780 C   0  0  0  0  0  3  0  0  0  0  0  0
  -17.6440  -30.6040   24.1470 C   0  0  0  0  0  3  0  0  0  0  0  0
  -16.5400  -29.8390   23.7340 C   0  0  0  0  0  3  0  0  0  0  0  0
  -16.7410  -28.5780   23.1460 C   0  0  0  0  0  3  0  0  0  0  0  0
  -25.8970  -32.5060   23.8730 C   0  0  0  0  0  3  0  0  0  0  0  0
  -26.4130  -31.7300   25.1460 C   0  0  1  0  0  0  0  0  0  0  0  0
  -25.3170  -31.4900   26.2120 C   0  0  0  0  0  1  0  0  0  0  0  0
  -26.9950  -30.3540   24.7510 C   0  0  0  0  0  1  0  0  0  0  0  0
  -27.5650  -32.5210   25.8100 C   0  0  0  0  0  1  0  0  0  0  0  0
  -25.5870  -33.9030   24.2110 N   0  0  0  0  0  0  0  0  0  0  0  0
  -25.9070  -34.9580   23.4510 C   0  0  0  0  0  0  0  0  0  0  0  0
  -26.5650  -34.8590   22.4120 O   0  0  0  0  0  0  0  0  0  0  0  0
  -25.0010  -34.0540   25.0190 H   0  0  0  0  0  0  0  0  0  0  0  0
  -24.1630  -36.7400   23.1250 C   0  0  0  0  0  1  0  0  0  0  0  0
  -25.4190  -36.3440   23.9170 C   0  0  0  0  0  3  0  0  0  0  0  0
  -27.5650  -37.2350   24.7110 C   0  0  0  0  0  1  0  0  0  0  0  0
  -26.4440  -37.4030   23.7890 N   0  0  0  0  0  0  0  0  0  0  0  0
  -26.0380  -38.3200   23.9480 H   0  0  0  0  0  0  0  0  0  0  0  0
  1  2  1  0
  1 47  1  0
  3  1  1  0
  4  7  1  0
  4  6  2  0
  5  4  1  0
  7  9  1  0
  8  5  1  0
  8  9  1  0
  9  1  1  0
 10  5  2  0
 11  6  1  0
 12 17  1  0
 13 14  1  0
 13 12  1  0
 15 14  1  0
 15 22  1  0
 15 16  1  0
 17 11  1  0
 17 16  1  0
 18 11  2  0
 19 20  2  0
 20 39  1  0
 21 20  1  0
 21 24  1  0
 22 19  1  0
 22 23  1  0
 23 21  2  0
 24 25  1  0
 25 26  2  0
 27 30  1  0
 27 26  1  0
 28 27  2  0
 29 28  1  0
 29 24  2  0
 30 31  1  0
 31 32  1  0
 32 33  2  0
 34 33  1  0
 34 38  1  0
 35 34  2  0
 36 31  2  0
 36 35  1  0
 37 36  1  0
 39 40  1  0
 40 43  1  0
 40 42  1  0
 41 39  2  0
 44 45  1  0
 44 19  1  0
 46 44  1  0
 48 47  2  0
 48 49  1  0
 50 52  1  0
 50 49  1  0
 51 62  2  0
 52 57  1  0
 53 61  1  0
 53 63  1  0
 54 60  1  0
 54 56  1  0
 55 61  1  0
 56 55  1  0
 57 56  2  0
 58 52  2  0
 59 58  1  0
 59 54  2  0
 60 53  1  0
 61 51  1  0
 63 65  2  0
 64 63  1  0
 66 64  1  0
 67 76  2  0
 67 72  1  0
 68 64  1  0
 68 72  1  0
 69 68  1  0
 70 71  1  0
 70 69  1  0
 71 67  1  0
 72 73  2  0
 73 74  1  0
 75 74  2  0
 76 75  1  0
 77 51  1  0
 77 82  1  0
 77 78  1  0
 78 81  1  1
 78 79  1  0
 80 78  1  0
 82 85  1  0
 83 87  1  0
 83 82  1  0
 84 83  2  0
 87 86  1  0
 89 87  1  0
 89 90  1  0
 89 88  1  0
M  ISO  4   6 100  11 100  49 101  50 101
M  END
>  <TORSDO>  (96) 
F 20

>  <SCORE>  (96) 
-13.817

>  <name>  (96) 
95

>  <ligand_id>  (96) 
95

>  <original_smiles>  (96) 
[H]C(C(=O)N1C([H])([H])C([H])([H])C([H])([H])C([H])(n2nc(-c3c([H])c([H])c(Oc4c([H])c([H])c(F)c([H])c4F)c([H])c3[H])c(C(=O)N([H])[H])c2N([H])[H])C1([H])[H])=C1C(=O)C([H])([H])C([H])([N+]([H])([H])C([H])([H])C([H])([H])C([H])([H])Oc2c([H])c([H])c3c(c2[H])C([H])([H])N(C(=O)C([H])(N([H])C(=O)C([H])(N([H])C([H])([H])[H])C([H])([H])[H])C(C([H])([H])[H])(C([H])([H])[H])C([H])([H])[H])C([H])(C(=O)N([H])C2([H])c4c([H])c([H])c([H])c([H])c4C([H])([H])C([H])([H])C2([H])[H])C3([H])[H])C1([H])[H]

>  <smiles>  (96) 
[H]C(C(=O)N1C([H])([H])C([H])([H])C([H])([H])C([H])(n2nc(-c3c([H])c([H])c(Oc4c([H])c([H])c(F)c([H])c4F)c([H])c3[H])c(C(=O)N([H])[H])c2N([H])[H])C1([H])[H])=C1C(=O)C([H])([H])C([H])([N+]([H])([H])C([H])([H])C([H])([H])C([H])([H])Oc2c([H])c([H])c3c(c2[H])C([H])([H])N(C(=O)C([H])(N([H])C(=O)C([H])(N([H])C([H])([H])[H])C([H])([H])[H])C(C([H])([H])[H])(C([H])([H])[H])C([H])([H])[H])C([H])(C(=O)N([H])C2([H])c4c([H])c([H])c([H])c([H])c4C([H])([H])C([H])([H])C2([H])[H])C3([H])[H])C1([H])[H]

$$$$
96:0:0
     RDKit          3D

 96105  0  0  1  0  0  0  0  0999 V2000
  -31.5950  -19.0620   17.4080 C   0  0  0  0  0  3  0  0  0  0  0  0
  -31.4990  -19.8610   16.2540 C   0  0  0  0  0  3  0  0  0  0  0  0
  -31.6950  -21.0680   18.7750 C   0  0  0  0  0  3  0  0  0  0  0  0
  -31.6940  -19.6610   18.6790 C   0  0  0  0  0  0  0  0  0  0  0  0
  -31.4970  -21.2710   16.3480 C   0  0  0  0  0  0  0  0  0  0  0  0
  -31.5850  -21.8840   17.6260 C   0  0  0  0  0  0  0  0  0  0  0  0
  -31.3970  -22.0840   15.0670 C   0  0  0  0  0  1  0  0  0  0  0  0
  -31.7980  -18.7960   19.9310 C   0  0  0  0  0  2  0  0  0  0  0  0
  -30.7780  -14.4140   20.3270 C   0  0  0  0  0  0  0  0  0  0  0  0
  -30.3130  -12.2950   19.1880 C   0  0  0  0  0  2  0  0  0  0  0  0
  -29.3650  -12.5600   18.0060 C   0  0  0  0  0  2  0  0  0  0  0  0
  -27.9060  -12.4190   18.4760 C   0  0  0  0  0  2  0  0  0  0  0  0
  -27.6040  -13.2510   19.7500 C   0  0  0  0  0  3  0  0  0  0  0  0
  -28.6900  -13.0730   20.8390 C   0  0  0  0  0  2  0  0  0  0  0  0
  -30.0020  -13.3040   20.2150 N   0  0  0  0  0  0  0  0  0  0  0  0
  -31.9360  -14.4570   19.9020 O   0  0  0  0  0  0  0  0  0  0  0  0
  -30.5570  -17.7870   21.9750 C   0  0  0  0  0  2  0  0  0  0  0  0
  -29.3910  -17.8560   19.8200 C   0  0  0  0  0  2  0  0  0  0  0  0
  -30.9170  -16.3000   21.7760 C   0  0  0  0  0  2  0  0  0  0  0  0
  -29.7820  -16.3990   19.5280 C   0  0  0  0  0  2  0  0  0  0  0  0
  -30.4450  -18.5750   20.6610 C   0  0  0  0  0  3  0  0  0  0  0  0
  -30.1900  -15.5780   20.6980 N   0  0  0  0  0  0  0  0  0  0  0  0
  -25.2220  -13.8630   20.4950 C   0  0  0  0  0  0  0  0  0  0  0  0
  -24.1560  -13.0940   20.8670 C   0  0  0  0  0  0  0  0  0  0  0  0
  -24.6140  -11.7400   20.8370 C   0  0  0  0  0  0  0  0  0  0  0  0
  -26.2630  -12.9790   20.2560 N   0  0  0  0  0  0  0  0  0  0  0  0
  -25.9020  -11.6980   20.5230 N   0  0  0  0  0  0  0  0  0  0  0  0
  -23.8880  -10.4780   21.0380 C   0  0  0  0  0  0  0  0  0  0  0  0
  -24.3360   -9.5040   21.9590 C   0  0  0  0  0  3  0  0  0  0  0  0
  -23.6090   -8.3090   22.1460 C   0  0  0  0  0  3  0  0  0  0  0  0
  -22.4220   -8.0780   21.4110 C   0  0  0  0  0  0  0  0  0  0  0  0
  -21.9920   -9.0410   20.4790 C   0  0  0  0  0  3  0  0  0  0  0  0
  -22.7190  -10.2280   20.2900 C   0  0  0  0  0  3  0  0  0  0  0  0
  -21.6690   -6.9320   21.5090 O   0  0  0  0  0  0  0  0  0  0  0  0
  -21.6490   -6.1800   22.6530 C   0  0  0  0  0  0  0  0  0  0  0  0
  -21.2670   -6.7260   23.8980 C   0  0  0  0  0  3  0  0  0  0  0  0
  -21.1830   -5.8970   25.0350 C   0  0  0  0  0  3  0  0  0  0  0  0
  -21.4830   -4.5240   24.9310 C   0  0  0  0  0  0  0  0  0  0  0  0
  -21.8650   -3.9810   23.6920 C   0  0  0  0  0  3  0  0  0  0  0  0
  -21.9400   -4.8060   22.5560 C   0  0  0  0  0  0  0  0  0  0  0  0
  -22.2830   -4.2720   21.3590 F   0  0  0  0  0  0  0  0  0  0  0  0
  -21.4010   -3.7240   26.0180 F   0  0  0  0  0  0  0  0  0  0  0  0
  -22.7620  -13.5730   21.1550 C   0  0  0  0  0  0  0  0  0  0  0  0
  -22.0450  -12.8830   22.0330 N   0  0  0  0  0  0  0  0  0  0  0  0
  -22.3190  -14.5980   20.6400 O   0  0  0  0  0  0  0  0  0  0  0  0
  -22.4110  -12.0550   22.4780 H   0  0  0  0  0  0  0  0  0  0  0  0
  -21.1140  -13.1980   22.2760 H   0  0  0  0  0  0  0  0  0  0  0  0
  -25.3940  -15.2350   20.3210 N   0  0  0  0  0  0  0  0  0  0  0  0
  -24.6400  -15.8970   20.4520 H   0  0  0  0  0  0  0  0  0  0  0  0
  -26.2710  -15.6790   20.0820 H   0  0  0  0  0  0  0  0  0  0  0  0
  -31.5070  -23.3960   17.8290 C   0  0  0  0  0  2  0  0  0  0  0  0
  -30.2170  -23.7490   18.5970 C   0  0  0  0  0  2  0  0  0  0  0  0
  -29.9230  -25.2320   18.8330 C   0  0  0  0  0  0  0  0  0  0  0  0
  -30.7380  -26.1230   18.5630 O   0  0  0  0  0  0  0  0  0  0  0  0
  -28.5150  -25.5250   19.3700 C   0  0  0  0  0  2  0  0  0  0  0  0
  -28.4600  -26.7440   20.1230 O   0  0  0  0  0  0  0  0  0  0  0  0
  -24.5890  -31.8770   23.2550 C   0  0  0  0  0  0  0  0  0  0  0  0
  -27.2470  -27.4060   20.1850 C   0  0  0  0  0  0  0  0  0  0  0  0
  -23.3860  -30.4600   21.6260 C   0  0  0  0  0  3  0  0  0  0  0  0
  -24.8380  -28.8990   20.2330 C   0  0  0  0  0  0  0  0  0  0  0  0
  -25.9160  -30.8010   21.4420 C   0  0  0  0  0  2  0  0  0  0  0  0
  -25.9980  -29.4240   20.8140 C   0  0  0  0  0  0  0  0  0  0  0  0
  -27.2010  -28.6820   20.7940 C   0  0  0  0  0  3  0  0  0  0  0  0
  -26.0490  -26.8750   19.6490 C   0  0  0  0  0  3  0  0  0  0  0  0
  -24.8540  -27.6170   19.6620 C   0  0  0  0  0  3  0  0  0  0  0  0
  -23.6000  -29.7650   20.2570 C   0  0  0  0  0  2  0  0  0  0  0  0
  -24.6490  -31.0580   22.1690 N   0  0  0  0  0  0  0  0  0  0  0  0
  -23.5030  -32.1800   23.7650 O   0  0  0  0  0  0  0  0  0  0  0  0
  -22.7270  -29.4510   22.5930 C   0  0  0  0  0  0  0  0  0  0  0  0
  -21.4030  -29.2690   22.4590 N   0  0  0  0  0  0  0  0  0  0  0  0
  -23.4030  -28.8330   23.4200 O   0  0  0  0  0  0  0  0  0  0  0  0
  -20.9170  -29.8220   21.7680 H   0  0  0  0  0  0  0  0  0  0  0  0
  -18.0260  -28.0690   22.9290 C   0  0  0  0  0  0  0  0  0  0  0  0
  -20.5790  -28.3360   23.2290 C   0  0  0  0  0  3  0  0  0  0  0  0
  -20.6900  -26.8980   22.6720 C   0  0  0  0  0  2  0  0  0  0  0  0
  -19.6020  -26.5590   21.6490 C   0  0  0  0  0  2  0  0  0  0  0  0
  -18.2130  -26.7110   22.2730 C   0  0  0  0  0  2  0  0  0  0  0  0
  -19.1370  -28.8380   23.3620 C   0  0  0  0  0  0  0  0  0  0  0  0
  -18.9090  -30.1100   23.9340 C   0  0  0  0  0  3  0  0  0  0  0  0
  -17.6020  -30.6120   24.0750 C   0  0  0  0  0  3  0  0  0  0  0  0
  -16.5040  -29.8390   23.6570 C   0  0  0  0  0  3  0  0  0  0  0  0
  -16.7170  -28.5690   23.0910 C   0  0  0  0  0  3  0  0  0  0  0  0
  -25.8770  -32.5000   23.8840 C   0  0  0  0  0  3  0  0  0  0  0  0
  -25.5740  -33.8990   24.2130 N   0  0  0  0  0  0  0  0  0  0  0  0
  -25.9040  -34.9470   23.4450 C   0  0  0  0  0  0  0  0  0  0  0  0
  -26.5700  -34.8370   22.4120 O   0  0  0  0  0  0  0  0  0  0  0  0
  -24.9860  -34.0600   25.0170 H   0  0  0  0  0  0  0  0  0  0  0  0
  -24.1760  -36.7390   23.0850 C   0  0  0  0  0  1  0  0  0  0  0  0
  -25.4180  -36.3390   23.8960 C   0  0  0  0  0  3  0  0  0  0  0  0
  -27.5580  -37.2240   24.7140 C   0  0  0  0  0  1  0  0  0  0  0  0
  -26.4520  -37.3900   23.7740 N   0  0  0  0  0  0  0  0  0  0  0  0
  -26.0460  -38.3110   23.9210 H   0  0  0  0  0  0  0  0  0  0  0  0
  -26.3900  -31.7290   25.1620 C   0  0  1  0  0  0  0  0  0  0  0  0
  -25.2970  -31.4970   26.2300 C   0  0  0  0  0  1  0  0  0  0  0  0
  -26.9690  -30.3480   24.7730 C   0  0  0  0  0  1  0  0  0  0  0  0
  -27.5440  -32.5190   25.8240 C   0  0  0  0  0  1  0  0  0  0  0  0
  1  4  1  0
  2  5  1  0
  2  1  2  0
  4  3  2  0
  4  8  1  0
  5  6  2  0
  6 51  1  0
  6  3  1  0
  7  5  1  0
  9 22  1  0
 10 15  1  0
 11 12  1  0
 11 10  1  0
 13 12  1  0
 13 26  1  0
 13 14  1  0
 15  9  1  0
 15 14  1  0
 16  9  2  0
 18 21  1  0
 19 17  1  0
 20 18  1  0
 20 22  1  0
 21  8  1  0
 21 17  1  0
 22 19  1  0
 23 24  2  0
 24 43  1  0
 25 24  1  0
 25 28  1  0
 26 23  1  0
 26 27  1  0
 27 25  2  0
 28 29  1  0
 29 30  2  0
 31 34  1  0
 31 30  1  0
 32 31  2  0
 33 32  1  0
 33 28  2  0
 34 35  1  0
 35 36  1  0
 36 37  2  0
 38 37  1  0
 38 42  1  0
 39 38  2  0
 40 35  2  0
 40 39  1  0
 41 40  1  0
 43 44  1  0
 44 47  1  0
 44 46  1  0
 45 43  2  0
 48 49  1  0
 48 23  1  0
 50 48  1  0
 51 52  1  0
 52 53  1  0
 53 55  1  0
 54 53  2  0
 55 56  1  0
 56 58  1  0
 57 68  2  0
 58 63  1  0
 59 67  1  0
 59 69  1  0
 60 66  1  0
 60 62  1  0
 61 67  1  0
 62 61  1  0
 63 62  2  0
 64 65  1  0
 64 58  2  0
 65 60  2  0
 66 59  1  0
 67 57  1  0
 69 71  2  0
 70 69  1  0
 72 70  1  0
 73 82  2  0
 73 78  1  0
 74 70  1  0
 74 78  1  0
 75 74  1  0
 76 77  1  0
 76 75  1  0
 77 73  1  0
 78 79  2  0
 79 80  1  0
 81 80  2  0
 82 81  1  0
 83 57  1  0
 83 84  1  0
 83 93  1  0
 84 87  1  0
 85 89  1  0
 85 84  1  0
 86 85  2  0
 89 88  1  0
 91 89  1  0
 91 92  1  0
 91 90  1  0
 93 96  1  1
 93 94  1  0
 95 93  1  0
M  ISO  4   9 100  22 100  55 101  56 101
M  END
>  <TORSDO>  (97) 
F 21

>  <SCORE>  (97) 
-13.602

>  <name>  (97) 
96

>  <ligand_id>  (97) 
96

>  <original_smiles>  (97) 
[H]c1c([H])c([H])c2c(c1[H])C([H])([H])C([H])([H])C([H])([H])C2([H])N([H])C(=O)C1([H])N(C(=O)C([H])(N([H])C(=O)C([H])(N([H])C([H])([H])[H])C([H])([H])[H])C(C([H])([H])[H])(C([H])([H])[H])C([H])([H])[H])C([H])([H])c2c([H])c(OC([H])([H])C(=O)C([H])([H])C([H])([H])c3c([H])c(C([H])([H])C4([H])C([H])([H])C([H])([H])N(C(=O)N5C([H])([H])C([H])([H])C([H])([H])C([H])(n6nc(-c7c([H])c([H])c(Oc8c([H])c([H])c(F)c([H])c8F)c([H])c7[H])c(C(=O)N([H])[H])c6N([H])[H])C5([H])[H])C([H])([H])C4([H])[H])c([H])c([H])c3C([H])([H])[H])c([H])c([H])c2C1([H])[H]

>  <smiles>  (97) 
[H]c1c([H])c([H])c2c(c1[H])C([H])([H])C([H])([H])C([H])([H])C2([H])N([H])C(=O)C1([H])N(C(=O)C([H])(N([H])C(=O)C([H])(N([H])C([H])([H])[H])C([H])([H])[H])C(C([H])([H])[H])(C([H])([H])[H])C([H])([H])[H])C([H])([H])c2c([H])c(OC([H])([H])C(=O)C([H])([H])C([H])([H])c3c([H])c(C([H])([H])C4([H])C([H])([H])C([H])([H])N(C(=O)N5C([H])([H])C([H])([H])C([H])([H])C([H])(n6nc(-c7c([H])c([H])c(Oc8c([H])c([H])c(F)c([H])c8F)c([H])c7[H])c(C(=O)N([H])[H])c6N([H])[H])C5([H])[H])C([H])([H])C4([H])[H])c([H])c([H])c3C([H])([H])[H])c([H])c([H])c2C1([H])[H]

$$$$
97:0:0
     RDKit          3D

 92 99  0  0  1  0  0  0  0  0999 V2000
  -29.4060  -22.4270   19.7830 C   0  0  0  0  0  2  0  0  0  0  0  0
  -28.6880  -23.7030   19.5280 N   0  0  0  0  0  4  0  0  0  0  0  0
  -28.2650  -24.0010   20.3950 H   0  0  0  0  0  0  0  0  0  0  0  0
  -27.9470  -23.5330   18.8670 H   0  0  0  0  0  0  0  0  0  0  0  0
  -29.5490  -24.8100   19.0350 C   0  0  0  0  0  2  0  0  0  0  0  0
  -28.7960  -26.1460   18.8510 C   0  0  0  0  0  2  0  0  0  0  0  0
  -28.4310  -26.7410   20.1090 O   0  0  0  0  0  0  0  0  0  0  0  0
  -24.5980  -31.8880   23.2690 C   0  0  0  0  0  0  0  0  0  0  0  0
  -27.2550  -27.4630   20.1410 C   0  0  0  0  0  0  0  0  0  0  0  0
  -23.4000  -30.4940   21.6190 C   0  0  0  0  0  3  0  0  0  0  0  0
  -24.8550  -28.9630   20.1950 C   0  0  0  0  0  0  0  0  0  0  0  0
  -25.9300  -30.8410   21.4420 C   0  0  0  0  0  2  0  0  0  0  0  0
  -26.0140  -29.4780   20.7880 C   0  0  0  0  0  0  0  0  0  0  0  0
  -27.2150  -28.7320   20.7680 C   0  0  0  0  0  3  0  0  0  0  0  0
  -26.0620  -26.9430   19.5880 C   0  0  0  0  0  3  0  0  0  0  0  0
  -24.8700  -27.6880   19.6070 C   0  0  0  0  0  3  0  0  0  0  0  0
  -23.6180  -29.8310   20.2350 C   0  0  0  0  0  2  0  0  0  0  0  0
  -24.6600  -31.0850   22.1690 N   0  0  0  0  0  0  0  0  0  0  0  0
  -23.5090  -32.1810   23.7830 O   0  0  0  0  0  0  0  0  0  0  0  0
  -22.7430  -29.4630   22.5670 C   0  0  0  0  0  0  0  0  0  0  0  0
  -21.4200  -29.2790   22.4290 N   0  0  0  0  0  0  0  0  0  0  0  0
  -23.4220  -28.8320   23.3820 O   0  0  0  0  0  0  0  0  0  0  0  0
  -20.9360  -29.8400   21.7420 H   0  0  0  0  0  0  0  0  0  0  0  0
  -18.0430  -28.0810   22.8980 C   0  0  0  0  0  0  0  0  0  0  0  0
  -20.5990  -28.3350   23.1860 C   0  0  0  0  0  3  0  0  0  0  0  0
  -20.7050  -26.9080   22.6010 C   0  0  0  0  0  2  0  0  0  0  0  0
  -19.6090  -26.5930   21.5790 C   0  0  0  0  0  2  0  0  0  0  0  0
  -18.2230  -26.7360   22.2130 C   0  0  0  0  0  2  0  0  0  0  0  0
  -19.1590  -28.8390   23.3410 C   0  0  0  0  0  0  0  0  0  0  0  0
  -18.9370  -30.0980   23.9410 C   0  0  0  0  0  3  0  0  0  0  0  0
  -17.6320  -30.5980   24.1020 C   0  0  0  0  0  3  0  0  0  0  0  0
  -16.5300  -29.8390   23.6740 C   0  0  0  0  0  3  0  0  0  0  0  0
  -16.7350  -28.5820   23.0770 C   0  0  0  0  0  3  0  0  0  0  0  0
  -25.8810  -32.5030   23.9080 C   0  0  0  0  0  3  0  0  0  0  0  0
  -25.5820  -33.9040   24.2320 N   0  0  0  0  0  0  0  0  0  0  0  0
  -25.9210  -34.9500   23.4680 C   0  0  0  0  0  0  0  0  0  0  0  0
  -26.5940  -34.8380   22.4400 O   0  0  0  0  0  0  0  0  0  0  0  0
  -24.9900  -34.0670   25.0340 H   0  0  0  0  0  0  0  0  0  0  0  0
  -24.2040  -36.7470   23.0940 C   0  0  0  0  0  1  0  0  0  0  0  0
  -25.4370  -36.3420   23.9150 C   0  0  0  0  0  3  0  0  0  0  0  0
  -27.5690  -37.2220   24.7570 C   0  0  0  0  0  1  0  0  0  0  0  0
  -26.4760  -37.3890   23.8050 N   0  0  0  0  0  0  0  0  0  0  0  0
  -26.0740  -38.3120   23.9420 H   0  0  0  0  0  0  0  0  0  0  0  0
  -26.3790  -31.7290   25.1890 C   0  0  1  0  0  0  0  0  0  0  0  0
  -25.2730  -31.4990   26.2450 C   0  0  0  0  0  1  0  0  0  0  0  0
  -26.9570  -30.3480   24.8040 C   0  0  0  0  0  1  0  0  0  0  0  0
  -27.5260  -32.5180   25.8650 C   0  0  0  0  0  1  0  0  0  0  0  0
  -28.5040  -21.3570   20.4470 C   0  0  0  0  0  2  0  0  0  0  0  0
  -29.8670  -19.2620   20.1870 C   0  0  0  0  0  0  0  0  0  0  0  0
  -29.2240  -20.1720   20.9300 N   0  0  0  0  0  0  0  0  0  0  0  0
  -30.0420  -19.4140   18.9770 O   0  0  0  0  0  0  0  0  0  0  0  0
  -29.1290  -19.9710   21.9190 H   0  0  0  0  0  0  0  0  0  0  0  0
  -30.3470  -17.9690   20.8770 C   0  0  0  0  0  2  0  0  0  0  0  0
  -29.6600  -16.7350   20.2530 C   0  0  0  0  0  2  0  0  0  0  0  0
  -30.6300  -14.4700   20.5460 C   0  0  0  0  0  0  0  0  0  0  0  0
  -30.3900  -12.3160   19.3870 C   0  0  0  0  0  2  0  0  0  0  0  0
  -29.4610  -12.5560   18.1760 C   0  0  0  0  0  2  0  0  0  0  0  0
  -27.9750  -12.4310   18.5740 C   0  0  0  0  0  2  0  0  0  0  0  0
  -27.6290  -13.2340   19.8570 C   0  0  0  0  0  3  0  0  0  0  0  0
  -28.6670  -12.9560   20.9710 C   0  0  0  0  0  2  0  0  0  0  0  0
  -30.0060  -13.2690   20.4410 N   0  0  0  0  0  0  0  0  0  0  0  0
  -31.7460  -14.7080   20.0760 O   0  0  0  0  0  0  0  0  0  0  0  0
  -29.8230  -15.4600   20.9670 N   0  0  0  0  0  0  0  0  0  0  0  0
  -28.9840  -15.1240   21.4170 H   0  0  0  0  0  0  0  0  0  0  0  0
  -25.2170  -13.8520   20.5110 C   0  0  0  0  0  0  0  0  0  0  0  0
  -24.1430  -13.0810   20.8680 C   0  0  0  0  0  0  0  0  0  0  0  0
  -24.6060  -11.7290   20.8520 C   0  0  0  0  0  0  0  0  0  0  0  0
  -26.2650  -12.9670   20.3050 N   0  0  0  0  0  0  0  0  0  0  0  0
  -25.8990  -11.6870   20.5670 N   0  0  0  0  0  0  0  0  0  0  0  0
  -23.8750  -10.4680   21.0370 C   0  0  0  0  0  0  0  0  0  0  0  0
  -24.2910   -9.5110   21.9880 C   0  0  0  0  0  3  0  0  0  0  0  0
  -23.5650   -8.3130   22.1590 C   0  0  0  0  0  3  0  0  0  0  0  0
  -22.4090   -8.0650   21.3800 C   0  0  0  0  0  0  0  0  0  0  0  0
  -22.0160   -9.0100   20.4180 C   0  0  0  0  0  3  0  0  0  0  0  0
  -22.7410  -10.2010   20.2440 C   0  0  0  0  0  3  0  0  0  0  0  0
  -21.6570   -6.9190   21.4640 O   0  0  0  0  0  0  0  0  0  0  0  0
  -21.5820   -6.1880   22.6230 C   0  0  0  0  0  0  0  0  0  0  0  0
  -21.1170   -6.7510   23.8320 C   0  0  0  0  0  3  0  0  0  0  0  0
  -20.9900   -5.9430   24.9800 C   0  0  0  0  0  3  0  0  0  0  0  0
  -21.3180   -4.5750   24.9220 C   0  0  0  0  0  0  0  0  0  0  0  0
  -21.7760   -4.0130   23.7170 C   0  0  0  0  0  3  0  0  0  0  0  0
  -21.9040   -4.8180   22.5710 C   0  0  0  0  0  0  0  0  0  0  0  0
  -22.3250   -4.2680   21.4080 F   0  0  0  0  0  0  0  0  0  0  0  0
  -21.1900   -3.7960   26.0220 F   0  0  0  0  0  0  0  0  0  0  0  0
  -22.7420  -13.5580   21.1170 C   0  0  0  0  0  0  0  0  0  0  0  0
  -22.0030  -12.8590   21.9730 N   0  0  0  0  0  0  0  0  0  0  0  0
  -22.3120  -14.5810   20.5850 O   0  0  0  0  0  0  0  0  0  0  0  0
  -22.3640  -12.0310   22.4240 H   0  0  0  0  0  0  0  0  0  0  0  0
  -21.0580  -13.1560   22.1750 H   0  0  0  0  0  0  0  0  0  0  0  0
  -25.3860  -15.2200   20.3250 N   0  0  0  0  0  0  0  0  0  0  0  0
  -24.6170  -15.8750   20.4050 H   0  0  0  0  0  0  0  0  0  0  0  0
  -26.2350  -15.6500   19.9800 H   0  0  0  0  0  0  0  0  0  0  0  0
  1 48  1  0
  2  1  1  0
  2  3  1  0
  4  2  1  0
  5  2  1  0
  6  5  1  0
  6  7  1  0
  7  9  1  0
  8 19  2  0
  9 14  1  0
 10 18  1  0
 10 20  1  0
 11 17  1  0
 11 13  1  0
 12 18  1  0
 13 12  1  0
 14 13  2  0
 15 16  1  0
 15  9  2  0
 16 11  2  0
 17 10  1  0
 18  8  1  0
 20 22  2  0
 21 20  1  0
 23 21  1  0
 24 33  2  0
 24 29  1  0
 25 21  1  0
 25 29  1  0
 26 25  1  0
 27 28  1  0
 27 26  1  0
 28 24  1  0
 29 30  2  0
 30 31  1  0
 32 31  2  0
 33 32  1  0
 34  8  1  0
 34 35  1  0
 34 44  1  0
 35 38  1  0
 36 40  1  0
 36 35  1  0
 37 36  2  0
 40 39  1  0
 42 40  1  0
 42 43  1  0
 42 41  1  0
 44 47  1  1
 44 45  1  0
 46 44  1  0
 48 50  1  0
 49 53  1  0
 49 50  1  0
 50 52  1  0
 51 49  2  0
 54 53  1  0
 54 63  1  0
 55 63  1  0
 56 61  1  0
 57 58  1  0
 57 56  1  0
 59 58  1  0
 59 68  1  0
 59 60  1  0
 61 55  1  0
 61 60  1  0
 62 55  2  0
 63 64  1  0
 65 66  2  0
 66 85  1  0
 67 66  1  0
 67 70  1  0
 68 65  1  0
 68 69  1  0
 69 67  2  0
 70 71  1  0
 71 72  2  0
 73 76  1  0
 73 72  1  0
 74 73  2  0
 75 74  1  0
 75 70  2  0
 76 77  1  0
 77 78  1  0
 78 79  2  0
 80 79  1  0
 80 84  1  0
 81 80  2  0
 82 77  2  0
 82 81  1  0
 83 82  1  0
 85 86  1  0
 86 89  1  0
 86 88  1  0
 87 85  2  0
 90 91  1  0
 90 65  1  0
 92 90  1  0
M  ISO  4   6 101   7 101  55 100  63 100
M  END
>  <TORSDO>  (98) 
F 23

>  <SCORE>  (98) 
-12.840

>  <name>  (98) 
97

>  <ligand_id>  (98) 
97

>  <original_smiles>  (98) 
[H]c1c([H])c([H])c2c(c1[H])C([H])([H])C([H])([H])C([H])([H])C2([H])N([H])C(=O)C1([H])N(C(=O)C([H])(N([H])C(=O)C([H])(N([H])C([H])([H])[H])C([H])([H])[H])C(C([H])([H])[H])(C([H])([H])[H])C([H])([H])[H])C([H])([H])c2c([H])c(OC([H])([H])C([H])([H])[N+]([H])([H])C([H])([H])C([H])([H])N([H])C(=O)C([H])([H])C([H])([H])N([H])C(=O)N3C([H])([H])C([H])([H])C([H])([H])C([H])(n4nc(-c5c([H])c([H])c(Oc6c([H])c([H])c(F)c([H])c6F)c([H])c5[H])c(C(=O)N([H])[H])c4N([H])[H])C3([H])[H])c([H])c([H])c2C1([H])[H]

>  <smiles>  (98) 
[H]c1c([H])c([H])c2c(c1[H])C([H])([H])C([H])([H])C([H])([H])C2([H])N([H])C(=O)C1([H])N(C(=O)C([H])(N([H])C(=O)C([H])(N([H])C([H])([H])[H])C([H])([H])[H])C(C([H])([H])[H])(C([H])([H])[H])C([H])([H])[H])C([H])([H])c2c([H])c(OC([H])([H])C([H])([H])[N+]([H])([H])C([H])([H])C([H])([H])N([H])C(=O)C([H])([H])C([H])([H])N([H])C(=O)N3C([H])([H])C([H])([H])C([H])([H])C([H])(n4nc(-c5c([H])c([H])c(Oc6c([H])c([H])c(F)c([H])c6F)c([H])c5[H])c(C(=O)N([H])[H])c4N([H])[H])C3([H])[H])c([H])c([H])c2C1([H])[H]

$$$$
98:0:0
     RDKit          3D

 92 99  0  0  1  0  0  0  0  0999 V2000
  -28.9660  -21.5660   19.8000 C   0  0  0  0  0  0  0  0  0  0  0  0
  -29.0700  -22.8110   20.3400 N   0  0  0  0  0  0  0  0  0  0  0  0
  -28.3040  -21.3920   18.7740 O   0  0  0  0  0  0  0  0  0  0  0  0
  -29.6130  -22.8850   21.1900 H   0  0  0  0  0  0  0  0  0  0  0  0
  -31.1540  -20.8130   20.8420 C   0  0  0  0  0  1  0  0  0  0  0  0
  -29.7340  -20.3430   20.4500 C   0  0  0  0  0  3  0  0  0  0  0  0
  -29.9950  -17.9600   19.6670 C   0  0  0  0  0  0  0  0  0  0  0  0
  -30.1240  -17.1290   18.4020 C   0  0  0  0  0  1  0  0  0  0  0  0
  -29.8600  -19.2370   19.4770 N   0  0  0  0  0  0  0  0  0  0  0  0
  -31.2630  -17.3960   21.8720 C   0  0  0  0  0  1  0  0  0  0  0  0
  -30.0350  -17.1150   20.9910 C   0  0  0  0  0  3  0  0  0  0  0  0
  -30.6080  -14.6030   20.4810 C   0  0  0  0  0  0  0  0  0  0  0  0
  -30.3980  -12.4030   19.3600 C   0  0  0  0  0  2  0  0  0  0  0  0
  -29.4660  -12.5630   18.1400 C   0  0  0  0  0  2  0  0  0  0  0  0
  -27.9890  -12.4010   18.5510 C   0  0  0  0  0  2  0  0  0  0  0  0
  -27.6190  -13.2500   19.7960 C   0  0  0  0  0  3  0  0  0  0  0  0
  -28.6610  -13.0610   20.9220 C   0  0  0  0  0  2  0  0  0  0  0  0
  -29.9820  -13.3960   20.3660 N   0  0  0  0  0  0  0  0  0  0  0  0
  -31.7700  -14.7780   20.1020 O   0  0  0  0  0  0  0  0  0  0  0  0
  -29.8060  -15.6360   20.8590 N   0  0  0  0  0  0  0  0  0  0  0  0
  -28.8680  -15.3480   21.0900 H   0  0  0  0  0  0  0  0  0  0  0  0
  -25.2080  -13.8470   20.4610 C   0  0  0  0  0  0  0  0  0  0  0  0
  -24.1400  -13.0710   20.8260 C   0  0  0  0  0  0  0  0  0  0  0  0
  -24.6130  -11.7240   20.8230 C   0  0  0  0  0  0  0  0  0  0  0  0
  -26.2630  -12.9690   20.2590 N   0  0  0  0  0  0  0  0  0  0  0  0
  -25.9080  -11.6890   20.5370 N   0  0  0  0  0  0  0  0  0  0  0  0
  -23.8940  -10.4580   21.0190 C   0  0  0  0  0  0  0  0  0  0  0  0
  -24.3260   -9.5010   21.9630 C   0  0  0  0  0  3  0  0  0  0  0  0
  -23.6070   -8.3000   22.1470 C   0  0  0  0  0  3  0  0  0  0  0  0
  -22.4420   -8.0480   21.3850 C   0  0  0  0  0  0  0  0  0  0  0  0
  -22.0290   -8.9940   20.4300 C   0  0  0  0  0  3  0  0  0  0  0  0
  -22.7490  -10.1850   20.2440 C   0  0  0  0  0  3  0  0  0  0  0  0
  -21.6950   -6.8990   21.4770 O   0  0  0  0  0  0  0  0  0  0  0  0
  -21.6530   -6.1560   22.6290 C   0  0  0  0  0  0  0  0  0  0  0  0
  -21.2360   -6.7130   23.8580 C   0  0  0  0  0  3  0  0  0  0  0  0
  -21.1420   -5.8980   25.0040 C   0  0  0  0  0  3  0  0  0  0  0  0
  -21.4540   -4.5280   24.9230 C   0  0  0  0  0  0  0  0  0  0  0  0
  -21.8640   -3.9720   23.6980 C   0  0  0  0  0  3  0  0  0  0  0  0
  -21.9600   -4.7830   22.5540 C   0  0  0  0  0  0  0  0  0  0  0  0
  -22.3360   -4.2370   21.3720 F   0  0  0  0  0  0  0  0  0  0  0  0
  -21.3560   -3.7420   26.0210 F   0  0  0  0  0  0  0  0  0  0  0  0
  -22.7340  -13.5410   21.0660 C   0  0  0  0  0  0  0  0  0  0  0  0
  -21.9970  -12.8540   21.9300 N   0  0  0  0  0  0  0  0  0  0  0  0
  -22.2970  -14.5540   20.5200 O   0  0  0  0  0  0  0  0  0  0  0  0
  -22.3620  -12.0340   22.3930 H   0  0  0  0  0  0  0  0  0  0  0  0
  -21.0530  -13.1530   22.1340 H   0  0  0  0  0  0  0  0  0  0  0  0
  -25.3620  -15.2160   20.2660 N   0  0  0  0  0  0  0  0  0  0  0  0
  -24.5820  -15.8580   20.3470 H   0  0  0  0  0  0  0  0  0  0  0  0
  -26.2030  -15.6590   19.9200 H   0  0  0  0  0  0  0  0  0  0  0  0
  -28.6450  -24.0980   19.7080 C   0  0  0  0  0  2  0  0  0  0  0  0
  -28.2860  -25.2660   20.6950 C   0  0  0  0  0  2  0  0  0  0  0  0
  -28.3580  -26.6240   20.1570 O   0  0  0  0  0  0  0  0  0  0  0  0
  -24.5870  -31.9010   23.2420 C   0  0  0  0  0  0  0  0  0  0  0  0
  -27.2040  -27.3940   20.1760 C   0  0  0  0  0  0  0  0  0  0  0  0
  -23.3740  -30.4880   21.6190 C   0  0  0  0  0  3  0  0  0  0  0  0
  -24.8180  -28.9390   20.1890 C   0  0  0  0  0  0  0  0  0  0  0  0
  -25.9040  -30.8300   21.4110 C   0  0  0  0  0  2  0  0  0  0  0  0
  -25.9850  -29.4560   20.7680 C   0  0  0  0  0  0  0  0  0  0  0  0
  -27.1830  -28.6960   20.7450 C   0  0  0  0  0  3  0  0  0  0  0  0
  -26.0170  -26.9010   19.5930 C   0  0  0  0  0  3  0  0  0  0  0  0
  -24.8320  -27.6640   19.5960 C   0  0  0  0  0  3  0  0  0  0  0  0
  -23.5760  -29.8030   20.2420 C   0  0  0  0  0  2  0  0  0  0  0  0
  -24.6410  -31.0850   22.1500 N   0  0  0  0  0  0  0  0  0  0  0  0
  -23.5030  -32.2010   23.7600 O   0  0  0  0  0  0  0  0  0  0  0  0
  -22.7240  -29.4720   22.5880 C   0  0  0  0  0  0  0  0  0  0  0  0
  -21.3990  -29.2840   22.4630 N   0  0  0  0  0  0  0  0  0  0  0  0
  -23.4090  -28.8550   23.4070 O   0  0  0  0  0  0  0  0  0  0  0  0
  -20.9060  -29.8360   21.7740 H   0  0  0  0  0  0  0  0  0  0  0  0
  -18.0330  -28.0620   22.9580 C   0  0  0  0  0  0  0  0  0  0  0  0
  -20.5860  -28.3440   23.2370 C   0  0  0  0  0  3  0  0  0  0  0  0
  -20.7030  -26.9100   22.6710 C   0  0  0  0  0  2  0  0  0  0  0  0
  -19.6090  -26.5710   21.6540 C   0  0  0  0  0  2  0  0  0  0  0  0
  -18.2240  -26.7090   22.2920 C   0  0  0  0  0  2  0  0  0  0  0  0
  -19.1430  -28.8360   23.3870 C   0  0  0  0  0  0  0  0  0  0  0  0
  -18.9120  -30.1020   23.9670 C   0  0  0  0  0  3  0  0  0  0  0  0
  -17.6020  -30.5940   24.1240 C   0  0  0  0  0  3  0  0  0  0  0  0
  -16.5060  -29.8160   23.7120 C   0  0  0  0  0  3  0  0  0  0  0  0
  -16.7220  -28.5530   23.1340 C   0  0  0  0  0  3  0  0  0  0  0  0
  -25.8770  -32.5240   23.8650 C   0  0  0  0  0  3  0  0  0  0  0  0
  -25.5750  -33.9240   24.1940 N   0  0  0  0  0  0  0  0  0  0  0  0
  -25.9070  -34.9730   23.4300 C   0  0  0  0  0  0  0  0  0  0  0  0
  -26.5720  -34.8640   22.3960 O   0  0  0  0  0  0  0  0  0  0  0  0
  -24.9830  -34.0830   24.9960 H   0  0  0  0  0  0  0  0  0  0  0  0
  -24.1810  -36.7680   23.0780 C   0  0  0  0  0  1  0  0  0  0  0  0
  -25.4250  -36.3640   23.8860 C   0  0  0  0  0  3  0  0  0  0  0  0
  -27.5650  -37.2430   24.7040 C   0  0  0  0  0  1  0  0  0  0  0  0
  -26.4600  -37.4130   23.7660 N   0  0  0  0  0  0  0  0  0  0  0  0
  -26.0570  -38.3340   23.9140 H   0  0  0  0  0  0  0  0  0  0  0  0
  -26.3960  -31.7550   25.1420 C   0  0  1  0  0  0  0  0  0  0  0  0
  -25.3060  -31.5280   26.2140 C   0  0  0  0  0  1  0  0  0  0  0  0
  -26.9720  -30.3740   24.7520 C   0  0  0  0  0  1  0  0  0  0  0  0
  -27.5520  -32.5470   25.7980 C   0  0  0  0  0  1  0  0  0  0  0  0
  1  2  1  0
  1  6  1  0
  2  4  1  0
  3  1  2  0
  6  5  1  0
  7 11  1  0
  8  7  1  0
  9  7  2  0
  9  6  1  0
 11 10  1  0
 12 20  1  0
 13 18  1  0
 14 15  1  0
 14 13  1  0
 16 15  1  0
 16 25  1  0
 16 17  1  0
 18 12  1  0
 18 17  1  0
 19 12  2  0
 20 11  1  0
 20 21  1  0
 22 23  2  0
 23 42  1  0
 24 23  1  0
 24 27  1  0
 25 22  1  0
 25 26  1  0
 26 24  2  0
 27 28  1  0
 28 29  2  0
 30 33  1  0
 30 29  1  0
 31 30  2  0
 32 31  1  0
 32 27  2  0
 33 34  1  0
 34 35  1  0
 35 36  2  0
 37 36  1  0
 37 41  1  0
 38 37  2  0
 39 34  2  0
 39 38  1  0
 40 39  1  0
 42 43  1  0
 43 46  1  0
 43 45  1  0
 44 42  2  0
 47 48  1  0
 47 22  1  0
 49 47  1  0
 50  2  1  0
 50 51  1  0
 52 54  1  0
 52 51  1  0
 53 64  2  0
 54 59  1  0
 55 63  1  0
 55 65  1  0
 56 62  1  0
 56 58  1  0
 57 63  1  0
 58 57  1  0
 59 58  2  0
 60 61  1  0
 60 54  2  0
 61 56  2  0
 62 55  1  0
 63 53  1  0
 65 67  2  0
 66 65  1  0
 68 66  1  0
 69 78  2  0
 69 74  1  0
 70 66  1  0
 70 74  1  0
 71 70  1  0
 72 73  1  0
 72 71  1  0
 73 69  1  0
 74 75  2  0
 75 76  1  0
 77 76  2  0
 78 77  1  0
 79 53  1  0
 79 80  1  0
 79 89  1  0
 80 83  1  0
 81 85  1  0
 81 80  1  0
 82 81  2  0
 85 84  1  0
 87 85  1  0
 87 88  1  0
 87 86  1  0
 89 92  1  1
 89 90  1  0
 91 89  1  0
M  ISO  4  12 100  20 100  51 101  52 101
M  END
>  <TORSDO>  (99) 
F 21

>  <SCORE>  (99) 
-13.345

>  <name>  (99) 
98

>  <ligand_id>  (99) 
98

>  <original_smiles>  (99) 
[H]c1c([H])c([H])c2c(c1[H])C([H])([H])C([H])([H])C([H])([H])C2([H])N([H])C(=O)C1([H])N(C(=O)C([H])(N([H])C(=O)C([H])(N([H])C([H])([H])[H])C([H])([H])[H])C(C([H])([H])[H])(C([H])([H])[H])C([H])([H])[H])C([H])([H])c2c([H])c(OC([H])([H])C([H])([H])N([H])C(=O)C([H])(N=C(C([H])([H])[H])C([H])(N([H])C(=O)N3C([H])([H])C([H])([H])C([H])([H])C([H])(n4nc(-c5c([H])c([H])c(Oc6c([H])c([H])c(F)c([H])c6F)c([H])c5[H])c(C(=O)N([H])[H])c4N([H])[H])C3([H])[H])C([H])([H])[H])C([H])([H])[H])c([H])c([H])c2C1([H])[H]

>  <smiles>  (99) 
[H]c1c([H])c([H])c2c(c1[H])C([H])([H])C([H])([H])C([H])([H])C2([H])N([H])C(=O)C1([H])N(C(=O)C([H])(N([H])C(=O)C([H])(N([H])C([H])([H])[H])C([H])([H])[H])C(C([H])([H])[H])(C([H])([H])[H])C([H])([H])[H])C([H])([H])c2c([H])c(OC([H])([H])C([H])([H])N([H])C(=O)C([H])(N=C(C([H])([H])[H])C([H])(N([H])C(=O)N3C([H])([H])C([H])([H])C([H])([H])C([H])(n4nc(-c5c([H])c([H])c(Oc6c([H])c([H])c(F)c([H])c6F)c([H])c5[H])c(C(=O)N([H])[H])c4N([H])[H])C3([H])[H])C([H])([H])[H])C([H])([H])[H])c([H])c([H])c2C1([H])[H]

$$$$
99:0:0
     RDKit          3D

 93102  0  0  1  0  0  0  0  0999 V2000
  -28.2510  -24.9000   23.4240 C   0  0  0  0  0  2  0  0  0  0  0  0
  -28.3440  -23.4770   22.8460 C   0  0  0  0  0  2  0  0  0  0  0  0
  -27.7940  -25.9100   22.3560 C   0  0  0  0  0  2  0  0  0  0  0  0
  -28.7950  -24.4280   20.5440 C   0  0  0  0  0  2  0  0  0  0  0  0
  -29.2890  -23.4300   21.6270 C   0  0  0  0  0  3  0  0  0  0  0  0
  -28.7100  -25.8690   21.1050 C   0  0  0  0  0  3  0  0  0  0  0  0
  -30.6410  -21.2650   21.6190 C   0  0  0  0  0  3  0  0  0  0  0  0
  -28.6090  -21.3340   20.2900 C   0  0  0  0  0  3  0  0  0  0  0  0
  -30.8290  -19.9080   21.2750 C   0  0  0  0  0  3  0  0  0  0  0  0
  -28.8010  -19.9790   19.9420 C   0  0  0  0  0  3  0  0  0  0  0  0
  -29.5200  -21.9890   21.1490 C   0  0  0  0  0  0  0  0  0  0  0  0
  -29.8940  -19.2430   20.4530 C   0  0  0  0  0  0  0  0  0  0  0  0
  -30.0300  -17.7530   20.1180 C   0  0  0  0  0  2  0  0  0  0  0  0
  -30.3620  -16.8500   21.3320 C   0  0  0  0  0  2  0  0  0  0  0  0
  -30.7120  -14.4990   20.4780 C   0  0  0  0  0  0  0  0  0  0  0  0
  -30.4300  -12.3660   19.2660 C   0  0  0  0  0  2  0  0  0  0  0  0
  -29.4930  -12.5860   18.0600 C   0  0  0  0  0  2  0  0  0  0  0  0
  -28.0080  -12.4790   18.4730 C   0  0  0  0  0  2  0  0  0  0  0  0
  -27.6750  -13.2890   19.7550 C   0  0  0  0  0  3  0  0  0  0  0  0
  -28.7170  -13.0050   20.8590 C   0  0  0  0  0  2  0  0  0  0  0  0
  -30.0500  -13.3230   20.3160 N   0  0  0  0  0  0  0  0  0  0  0  0
  -31.8170  -14.7330   19.9830 O   0  0  0  0  0  0  0  0  0  0  0  0
  -30.0120  -15.4410   21.1260 N   0  0  0  0  0  0  0  0  0  0  0  0
  -29.1160  -15.1430   21.4800 H   0  0  0  0  0  0  0  0  0  0  0  0
  -25.2700  -13.9280   20.4200 C   0  0  0  0  0  0  0  0  0  0  0  0
  -24.1910  -13.1680   20.7880 C   0  0  0  0  0  0  0  0  0  0  0  0
  -24.6430  -11.8130   20.7820 C   0  0  0  0  0  0  0  0  0  0  0  0
  -26.3110  -13.0340   20.2160 N   0  0  0  0  0  0  0  0  0  0  0  0
  -25.9360  -11.7590   20.4890 N   0  0  0  0  0  0  0  0  0  0  0  0
  -23.9070  -10.5560   20.9850 C   0  0  0  0  0  0  0  0  0  0  0  0
  -24.3350   -9.5960   21.9280 C   0  0  0  0  0  3  0  0  0  0  0  0
  -23.6020   -8.4050   22.1180 C   0  0  0  0  0  3  0  0  0  0  0  0
  -22.4290   -8.1660   21.3650 C   0  0  0  0  0  0  0  0  0  0  0  0
  -22.0190   -9.1150   20.4130 C   0  0  0  0  0  3  0  0  0  0  0  0
  -22.7520  -10.2990   20.2200 C   0  0  0  0  0  3  0  0  0  0  0  0
  -21.6680   -7.0250   21.4630 O   0  0  0  0  0  0  0  0  0  0  0  0
  -21.6260   -6.2850   22.6170 C   0  0  0  0  0  0  0  0  0  0  0  0
  -21.2270   -6.8470   23.8490 C   0  0  0  0  0  3  0  0  0  0  0  0
  -21.1310   -6.0340   24.9960 C   0  0  0  0  0  3  0  0  0  0  0  0
  -21.4220   -4.6600   24.9130 C   0  0  0  0  0  0  0  0  0  0  0  0
  -21.8130   -4.0960   23.6850 C   0  0  0  0  0  3  0  0  0  0  0  0
  -21.9120   -4.9060   22.5400 C   0  0  0  0  0  0  0  0  0  0  0  0
  -22.2690   -4.3540   21.3550 F   0  0  0  0  0  0  0  0  0  0  0  0
  -21.3230   -3.8780   26.0120 F   0  0  0  0  0  0  0  0  0  0  0  0
  -22.7930  -13.6550   21.0380 C   0  0  0  0  0  0  0  0  0  0  0  0
  -22.0530  -12.9730   21.9050 N   0  0  0  0  0  0  0  0  0  0  0  0
  -22.3630  -14.6720   20.4960 O   0  0  0  0  0  0  0  0  0  0  0  0
  -22.4140  -12.1490   22.3630 H   0  0  0  0  0  0  0  0  0  0  0  0
  -21.1120  -13.2780   22.1130 H   0  0  0  0  0  0  0  0  0  0  0  0
  -25.4520  -15.2940   20.2270 N   0  0  0  0  0  0  0  0  0  0  0  0
  -24.7100  -15.9730   20.3500 H   0  0  0  0  0  0  0  0  0  0  0  0
  -26.3120  -15.7070   19.8860 H   0  0  0  0  0  0  0  0  0  0  0  0
  -28.4000  -26.7890   20.0430 O   0  0  0  0  0  0  0  0  0  0  0  0
  -24.6080  -31.9090   23.2240 C   0  0  0  0  0  0  0  0  0  0  0  0
  -27.2260  -27.5000   20.1030 C   0  0  0  0  0  0  0  0  0  0  0  0
  -23.3860  -30.5010   21.6000 C   0  0  0  0  0  3  0  0  0  0  0  0
  -24.8240  -28.9750   20.1450 C   0  0  0  0  0  0  0  0  0  0  0  0
  -25.8980  -30.8850   21.3550 C   0  0  0  0  0  2  0  0  0  0  0  0
  -25.9840  -29.5120   20.7190 C   0  0  0  0  0  0  0  0  0  0  0  0
  -27.1930  -28.7800   20.6970 C   0  0  0  0  0  3  0  0  0  0  0  0
  -26.0560  -26.9710   19.5190 C   0  0  0  0  0  3  0  0  0  0  0  0
  -24.8510  -27.7050   19.5410 C   0  0  0  0  0  3  0  0  0  0  0  0
  -23.5750  -29.8260   20.2150 C   0  0  0  0  0  2  0  0  0  0  0  0
  -24.6510  -31.1090   22.1220 N   0  0  0  0  0  0  0  0  0  0  0  0
  -23.5300  -32.1950   23.7660 O   0  0  0  0  0  0  0  0  0  0  0  0
  -22.7510  -29.4750   22.5670 C   0  0  0  0  0  0  0  0  0  0  0  0
  -21.4240  -29.2920   22.4560 N   0  0  0  0  0  0  0  0  0  0  0  0
  -23.4480  -28.8470   23.3670 O   0  0  0  0  0  0  0  0  0  0  0  0
  -20.9280  -29.8560   21.7800 H   0  0  0  0  0  0  0  0  0  0  0  0
  -18.0590  -28.0730   22.9580 C   0  0  0  0  0  0  0  0  0  0  0  0
  -20.6160  -28.3440   23.2230 C   0  0  0  0  0  3  0  0  0  0  0  0
  -20.7260  -26.9160   22.6400 C   0  0  0  0  0  2  0  0  0  0  0  0
  -19.6200  -26.5920   21.6310 C   0  0  0  0  0  2  0  0  0  0  0  0
  -18.2390  -26.7270   22.2800 C   0  0  0  0  0  2  0  0  0  0  0  0
  -19.1760  -28.8400   23.3840 C   0  0  0  0  0  0  0  0  0  0  0  0
  -18.9540  -30.1020   23.9770 C   0  0  0  0  0  3  0  0  0  0  0  0
  -17.6480  -30.5960   24.1510 C   0  0  0  0  0  3  0  0  0  0  0  0
  -16.5460  -29.8250   23.7450 C   0  0  0  0  0  3  0  0  0  0  0  0
  -16.7520  -28.5670   23.1520 C   0  0  0  0  0  3  0  0  0  0  0  0
  -25.9020  -32.5310   23.8380 C   0  0  0  0  0  3  0  0  0  0  0  0
  -26.4370  -31.7490   25.1010 C   0  0  1  0  0  0  0  0  0  0  0  0
  -25.3580  -31.5060   26.1830 C   0  0  0  0  0  1  0  0  0  0  0  0
  -27.0150  -30.3780   24.6800 C   0  0  0  0  0  1  0  0  0  0  0  0
  -27.5970  -32.5380   25.7550 C   0  0  0  0  0  1  0  0  0  0  0  0
  -25.6020  -33.9240   24.1850 N   0  0  0  0  0  0  0  0  0  0  0  0
  -25.9280  -34.9810   23.4270 C   0  0  0  0  0  0  0  0  0  0  0  0
  -26.5860  -34.8840   22.3890 O   0  0  0  0  0  0  0  0  0  0  0  0
  -25.0160  -34.0750   24.9930 H   0  0  0  0  0  0  0  0  0  0  0  0
  -24.1950  -36.7730   23.0990 C   0  0  0  0  0  1  0  0  0  0  0  0
  -25.4430  -36.3650   23.8970 C   0  0  0  0  0  3  0  0  0  0  0  0
  -27.5880  -37.2400   24.7140 C   0  0  0  0  0  1  0  0  0  0  0  0
  -26.4750  -37.4190   23.7830 N   0  0  0  0  0  0  0  0  0  0  0  0
  -26.0720  -38.3390   23.9460 H   0  0  0  0  0  0  0  0  0  0  0  0
  2  1  1  0
  3  1  1  0
  4  6  1  0
  4  5  1  0
  5 11  1  0
  5  2  1  0
  6 53  1  0
  6  3  1  0
  8 11  1  0
  9  7  1  0
 10  8  2  0
 10 12  1  0
 11  7  2  0
 12  9  2  0
 13 12  1  0
 13 14  1  0
 15 23  1  0
 16 21  1  0
 17 18  1  0
 17 16  1  0
 19 18  1  0
 19 28  1  0
 19 20  1  0
 21 15  1  0
 21 20  1  0
 22 15  2  0
 23 14  1  0
 23 24  1  0
 25 26  2  0
 26 45  1  0
 27 26  1  0
 27 30  1  0
 28 25  1  0
 28 29  1  0
 29 27  2  0
 30 31  1  0
 31 32  2  0
 33 36  1  0
 33 32  1  0
 34 33  2  0
 35 34  1  0
 35 30  2  0
 36 37  1  0
 37 38  1  0
 38 39  2  0
 40 39  1  0
 40 44  1  0
 41 40  2  0
 42 37  2  0
 42 41  1  0
 43 42  1  0
 45 46  1  0
 46 49  1  0
 46 48  1  0
 47 45  2  0
 50 51  1  0
 50 25  1  0
 52 50  1  0
 53 55  1  0
 54 65  2  0
 55 60  1  0
 56 64  1  0
 56 66  1  0
 57 63  1  0
 57 59  1  0
 58 64  1  0
 59 58  1  0
 60 59  2  0
 61 62  1  0
 61 55  2  0
 62 57  2  0
 63 56  1  0
 64 54  1  0
 66 68  2  0
 67 66  1  0
 69 67  1  0
 70 79  2  0
 70 75  1  0
 71 67  1  0
 71 75  1  0
 72 71  1  0
 73 74  1  0
 73 72  1  0
 74 70  1  0
 75 76  2  0
 76 77  1  0
 78 77  2  0
 79 78  1  0
 80 54  1  0
 80 85  1  0
 80 81  1  0
 81 84  1  1
 81 82  1  0
 83 81  1  0
 85 88  1  0
 86 90  1  0
 86 85  1  0
 87 86  2  0
 90 89  1  0
 92 90  1  0
 92 93  1  0
 92 91  1  0
M  ISO  4   6 101  15 100  23 100  53 101
M  END
>  <TORSDO>  (100) 
F 19

>  <SCORE>  (100) 
-13.673

>  <name>  (100) 
99

>  <ligand_id>  (100) 
99

>  <original_smiles>  (100) 
[H]c1c([H])c([H])c2c(c1[H])C([H])([H])C([H])([H])C([H])([H])C2([H])N([H])C(=O)C1([H])N(C(=O)C([H])(N([H])C(=O)C([H])(N([H])C([H])([H])[H])C([H])([H])[H])C(C([H])([H])[H])(C([H])([H])[H])C([H])([H])[H])C([H])([H])c2c([H])c(OC3([H])C([H])([H])C([H])([H])C([H])([H])C([H])(c4c([H])c([H])c(C([H])([H])C([H])([H])N([H])C(=O)N5C([H])([H])C([H])([H])C([H])([H])C([H])(n6nc(-c7c([H])c([H])c(Oc8c([H])c([H])c(F)c([H])c8F)c([H])c7[H])c(C(=O)N([H])[H])c6N([H])[H])C5([H])[H])c([H])c4[H])C3([H])[H])c([H])c([H])c2C1([H])[H]

>  <smiles>  (100) 
[H]c1c([H])c([H])c2c(c1[H])C([H])([H])C([H])([H])C([H])([H])C2([H])N([H])C(=O)C1([H])N(C(=O)C([H])(N([H])C(=O)C([H])(N([H])C([H])([H])[H])C([H])([H])[H])C(C([H])([H])[H])(C([H])([H])[H])C([H])([H])[H])C([H])([H])c2c([H])c(OC3([H])C([H])([H])C([H])([H])C([H])([H])C([H])(c4c([H])c([H])c(C([H])([H])C([H])([H])N([H])C(=O)N5C([H])([H])C([H])([H])C([H])([H])C([H])(n6nc(-c7c([H])c([H])c(Oc8c([H])c([H])c(F)c([H])c8F)c([H])c7[H])c(C(=O)N([H])[H])c6N([H])[H])C5([H])[H])c([H])c4[H])C3([H])[H])c([H])c([H])c2C1([H])[H]

$$$$
