E3-ligand
                    3D
 Structure written by MMmdl.
 34 36  0  0  1  0            999 V2000
   48.6355   -9.5369   19.5843 C   0  0  0  0  0  0
   46.6443  -10.5078   18.3617 C   0  0  1  0  0  0
   44.2683   -8.6696   18.4715 C   0  0  0  0  0  0
   42.3230   -8.7657   19.8681 C   0  0  0  0  0  0
   42.6792  -11.1649   20.5796 C   0  0  0  0  0  0
   48.2866   -8.3640   19.4802 O   0  0  0  0  0  0
   47.9357  -10.5558   19.0484 N   0  0  0  0  0  0
   46.5398  -11.6191   17.2464 C   0  0  0  0  0  0
   47.6310  -11.3694   16.1736 C   0  0  0  0  0  0
   46.7538  -13.0522   17.8073 C   0  0  0  0  0  0
   45.1632  -11.5829   16.5385 C   0  0  0  0  0  0
   45.5416  -10.6080   19.4504 C   0  0  0  0  0  0
   45.6949  -11.4608   20.3294 O   0  0  0  0  0  0
   44.4626   -9.7797   19.4167 N   0  0  0  0  0  0
   43.3402   -9.7857   20.3856 C   0  0  1  0  0  0
   43.1945   -7.7854   19.1052 C   0  0  1  0  0  0
   43.7580   -6.8153   19.9619 O   0  0  0  0  0  0
   42.5510  -11.9321   19.6241 O   0  0  0  0  0  0
   42.2099  -11.3982   21.8124 N   0  0  0  0  0  0
   41.2893  -12.4766   22.1673 C   0  0  1  0  0  0
   41.4062  -12.8026   23.6641 C   0  0  0  0  0  0
   39.8274  -12.1888   21.7988 C   0  0  0  0  0  0
   39.3366  -10.8860   21.6368 C   0  0  0  0  0  0
   37.9927  -10.6747   21.3435 C   0  0  0  0  0  0
   37.1203  -11.7599   21.2060 C   0  0  0  0  0  0
   37.6242  -13.0551   21.3174 C   0  0  0  0  0  0
   38.9635  -13.2655   21.6204 C   0  0  0  0  0  0
   35.6574  -11.5541   20.9836 C   0  0  0  0  0  0
   34.5461  -12.3272   21.3595 C   0  0  0  0  0  0
   34.5141  -13.6601   22.0812 C   0  0  0  0  0  0
   33.3672  -11.8207   21.0506 N   0  0  0  0  0  0
   33.4673  -10.6743   20.4372 C   0  0  0  0  0  0
   35.0765  -10.1395   20.1385 S   0  0  0  0  0  0
   49.5374   -9.7862   20.1235 H   0  0  0  0  0  0
  1  6  2  0  0  0
  1  7  1  0  0  0
  1 34  1  0  0  0
  2  7  1  0  0  0
  2  8  1  0  0  0
  2 12  1  0  0  0
  3 14  1  0  0  0
  3 16  1  0  0  0
  4 16  1  0  0  0
  4 15  1  0  0  0
  5 15  1  0  0  0
  5 18  2  0  0  0
  5 19  1  0  0  0
  8  9  1  0  0  0
  8 10  1  0  0  0
  8 11  1  0  0  0
 12 13  2  0  0  0
 12 14  1  0  0  0
 14 15  1  0  0  0
 16 17  1  0  0  0
 19 20  1  0  0  0
 20 21  1  0  0  0
 20 22  1  0  0  0
 22 23  1  0  0  0
 22 27  2  0  0  0
 23 24  2  0  0  0
 24 25  1  0  0  0
 25 26  2  0  0  0
 25 28  1  0  0  0
 26 27  1  0  0  0
 28 29  2  0  0  0
 28 33  1  0  0  0
 29 30  1  0  0  0
 29 31  1  0  0  0
 31 32  2  0  0  0
 32 33  1  0  0  0
M  END
> <s_m_entry_id>
10

> <s_m_entry_name>
7PI4.1_ligand

> <s_m_subgroup_title>
7PI4 - preprocessed_split_by_structure

> <s_m_subgroupid>
7PI4 - preprocessed_split_by_structure

> <b_m_subgroup_collapsed>
0

$$$$
