ligand
                    3D
 Structure written by MMmdl.
104110  0  0  1  0            999 V2000
   76.6784   32.8156   57.6353 N   0  0  0  0  0  0
   75.3626   34.6575   58.6972 C   0  0  0  0  0  0
   68.6450   41.4250   48.3039 O   0  0  0  0  0  0
   75.6796   33.6652   57.5979 C   0  0  0  0  0  0
   73.0010   35.2626   49.0849 C   0  0  0  0  0  0
   73.2349   36.7209   48.6448 C   0  0  0  0  0  0
   72.1102   37.7104   49.0139 C   0  0  0  0  0  0
   70.9629   37.7378   47.9806 C   0  0  0  0  0  0
   70.6021   40.1657   47.5275 C   0  0  0  0  0  0
   69.5352   41.2280   47.2088 C   0  0  0  0  0  0
   69.0025   42.3626   49.2467 C   0  0  0  0  0  0
   69.4658   41.9423   50.4964 C   0  0  0  0  0  0
   69.6748   42.8755   51.5155 C   0  0  0  0  0  0
   69.4295   44.2302   51.3107 C   0  0  0  0  0  0
   75.6626   32.5622   55.7249 C   0  0  0  0  0  0
   68.9627   44.6309   50.0646 C   0  0  0  0  0  0
   68.5317   45.9663   49.6018 C   0  0  0  0  0  0
   67.5234   46.8379   47.4536 C   0  0  2  0  0  0
   68.2857   48.1989   47.4668 C   0  0  0  0  0  0
   66.2234   49.4646   46.9985 C   0  0  0  0  0  0
   65.4279   48.1540   46.8388 C   0  0  0  0  0  0
   66.0291   47.0634   47.7403 C   0  0  0  0  0  0
   68.7684   43.7338   49.0468 C   0  0  0  0  0  0
   68.2614   44.5005   47.8781 C   0  0  0  0  0  0
   74.7768   34.4634   53.5848 C   0  0  0  0  0  0
   75.2595   32.2263   54.2856 C   0  0  2  0  0  0
   75.0972   35.6452   52.7300 C   0  0  0  0  0  0
   74.7452   36.9505   53.1091 C   0  0  0  0  0  0
   75.1035   38.0448   52.3261 C   0  0  0  0  0  0
   75.8414   37.8505   51.1625 C   0  0  0  0  0  0
   76.2214   36.5703   50.7768 C   0  0  0  0  0  0
   75.8408   35.4762   51.5469 C   0  0  0  0  0  0
   73.6886   34.6113   54.6001 C   0  0  0  0  0  0
   73.8559   34.2006   55.9422 C   0  0  0  0  0  0
   71.5865   35.1374   55.5069 C   0  0  0  0  0  0
   70.1552   35.5984   55.6704 C   0  0  0  0  0  0
   76.0135   31.0239   53.6613 C   0  0  0  0  0  0
   72.3736   35.0899   54.3483 C   0  0  0  0  0  0
   71.8316   35.4649   52.9802 C   0  0  0  0  0  0
   75.4132   30.6110   52.3053 C   0  0  0  0  0  0
   75.6305   30.8379   49.8234 C   0  0  0  0  0  0
   75.4496   32.1523   49.0364 C   0  0  0  0  0  0
   74.2155   32.9930   49.4311 C   0  0  0  0  0  0
   74.1535   34.3284   48.6595 C   0  0  0  0  0  0
   76.6689   32.1102   56.4350 N   0  0  0  0  0  0
   76.0545   31.0510   51.2089 N   0  0  0  0  0  0
   70.1607   38.9658   47.9548 N   0  0  0  0  0  0
   68.1586   45.7925   48.3010 N   0  0  0  0  0  0
   67.5284   49.3027   47.2991 N   0  0  0  0  0  0
   75.4830   33.3985   53.4419 N   0  0  0  0  0  0
   74.9760   33.5376   56.4187 N   0  0  0  0  0  0
   65.7368   50.5790   46.8427 O   0  0  0  0  0  0
   69.4941   48.3032   47.6193 O   0  0  0  0  0  0
   68.5053   47.0052   50.2630 O   0  0  0  0  0  0
   67.9773   44.0594   46.7655 O   0  0  0  0  0  0
   71.7898   40.4142   47.3148 O   0  0  0  0  0  0
   74.3752   29.9515   52.2705 O   0  0  0  0  0  0
   72.4514   34.5401   56.8839 S   0  0  0  0  0  0
   76.2720   39.1979   50.1761 Cl  0  0  0  0  0  0
   75.2171   35.6640   58.3048 H   0  0  0  0  0  0
   74.4547   34.3898   59.2363 H   0  0  0  0  0  0
   76.1623   34.7195   59.4356 H   0  0  0  0  0  0
   72.0563   34.8877   48.6892 H   0  0  0  0  0  0
   72.9082   35.2486   50.1689 H   0  0  0  0  0  0
   73.4351   36.7617   47.5727 H   0  0  0  0  0  0
   74.1523   37.0735   49.1100 H   0  0  0  0  0  0
   72.5613   38.7005   49.0855 H   0  0  0  0  0  0
   71.7193   37.4960   50.0081 H   0  0  0  0  0  0
   70.2998   36.8893   48.1532 H   0  0  0  0  0  0
   71.3627   37.5930   46.9745 H   0  0  0  0  0  0
   69.9736   42.1599   46.8615 H   0  0  0  0  0  0
   68.9488   40.8593   46.3669 H   0  0  0  0  0  0
   69.6246   40.8916   50.6880 H   0  0  0  0  0  0
   69.9863   42.5538   52.4874 H   0  0  0  0  0  0
   69.5697   44.9339   52.1185 H   0  0  0  0  0  0
   67.6163   46.5057   46.4177 H   0  0  0  0  0  0
   65.4597   47.8572   45.7899 H   0  0  0  0  0  0
   64.3841   48.3350   47.0855 H   0  0  0  0  0  0
   65.9145   47.3395   48.7839 H   0  0  0  0  0  0
   65.4820   46.1352   47.6266 H   0  0  0  0  0  0
   74.1967   31.9621   54.2844 H   0  0  0  0  0  0
   74.1984   37.1378   54.0187 H   0  0  0  0  0  0
   74.8130   39.0405   52.6250 H   0  0  0  0  0  0
   76.7975   36.4225   49.8749 H   0  0  0  0  0  0
   76.1537   34.4957   51.2177 H   0  0  0  0  0  0
   69.7557   35.3730   56.6596 H   0  0  0  0  0  0
   70.0683   36.6753   55.5322 H   0  0  0  0  0  0
   69.4901   35.1239   54.9486 H   0  0  0  0  0  0
   75.9709   30.1653   54.3306 H   0  0  0  0  0  0
   77.0738   31.2591   53.5490 H   0  0  0  0  0  0
   70.7448   35.4091   52.9294 H   0  0  0  0  0  0
   72.1090   36.4752   52.6853 H   0  0  0  0  0  0
   72.1978   34.7842   52.2139 H   0  0  0  0  0  0
   76.3975   30.2312   49.3405 H   0  0  0  0  0  0
   74.7114   30.2504   49.7620 H   0  0  0  0  0  0
   75.3768   31.9107   47.9750 H   0  0  0  0  0  0
   76.3540   32.7546   49.1385 H   0  0  0  0  0  0
   74.2384   33.1907   50.5036 H   0  0  0  0  0  0
   73.3050   32.4202   49.2491 H   0  0  0  0  0  0
   75.1027   34.8462   48.7975 H   0  0  0  0  0  0
   74.0820   34.1352   47.5881 H   0  0  0  0  0  0
   76.9282   31.5403   51.3351 H   0  0  0  0  0  0
   69.1813   38.8673   48.1807 H   0  0  0  0  0  0
   68.0486   50.1664   47.3665 H   0  0  0  0  0  0
  1  4  2  0  0  0
  1 45  1  0  0  0
  2  4  1  0  0  0
  2 60  1  0  0  0
  2 61  1  0  0  0
  2 62  1  0  0  0
  3 10  1  0  0  0
  3 11  1  0  0  0
  4 51  1  0  0  0
  5  6  1  0  0  0
  5 44  1  0  0  0
  5 63  1  0  0  0
  5 64  1  0  0  0
  6  7  1  0  0  0
  6 65  1  0  0  0
  6 66  1  0  0  0
  7  8  1  0  0  0
  7 67  1  0  0  0
  7 68  1  0  0  0
  8 47  1  0  0  0
  8 69  1  0  0  0
  8 70  1  0  0  0
  9 10  1  0  0  0
  9 47  1  0  0  0
  9 56  2  0  0  0
 10 71  1  0  0  0
 10 72  1  0  0  0
 11 12  2  0  0  0
 11 23  1  0  0  0
 12 13  1  0  0  0
 12 73  1  0  0  0
 13 14  2  0  0  0
 13 74  1  0  0  0
 14 16  1  0  0  0
 14 75  1  0  0  0
 15 26  1  0  0  0
 15 45  2  0  0  0
 15 51  1  0  0  0
 16 17  1  0  0  0
 16 23  2  0  0  0
 17 48  1  0  0  0
 17 54  2  0  0  0
 18 19  1  0  0  0
 18 22  1  0  0  0
 18 48  1  0  0  0
 18 76  1  0  0  0
 19 49  1  0  0  0
 19 53  2  0  0  0
 20 21  1  0  0  0
 20 49  1  0  0  0
 20 52  2  0  0  0
 21 22  1  0  0  0
 21 77  1  0  0  0
 21 78  1  0  0  0
 22 79  1  0  0  0
 22 80  1  0  0  0
 23 24  1  0  0  0
 24 48  1  0  0  0
 24 55  2  0  0  0
 25 27  1  0  0  0
 25 33  1  0  0  0
 25 50  2  0  0  0
 26 37  1  0  0  0
 26 50  1  0  0  0
 26 81  1  0  0  0
 27 28  1  0  0  0
 27 32  2  0  0  0
 28 29  2  0  0  0
 28 82  1  0  0  0
 29 30  1  0  0  0
 29 83  1  0  0  0
 30 31  2  0  0  0
 30 59  1  0  0  0
 31 32  1  0  0  0
 31 84  1  0  0  0
 32 85  1  0  0  0
 33 34  2  0  0  0
 33 38  1  0  0  0
 34 51  1  0  0  0
 34 58  1  0  0  0
 35 36  1  0  0  0
 35 38  2  0  0  0
 35 58  1  0  0  0
 36 86  1  0  0  0
 36 87  1  0  0  0
 36 88  1  0  0  0
 37 40  1  0  0  0
 37 89  1  0  0  0
 37 90  1  0  0  0
 38 39  1  0  0  0
 39 91  1  0  0  0
 39 92  1  0  0  0
 39 93  1  0  0  0
 40 46  1  0  0  0
 40 57  2  0  0  0
 41 42  1  0  0  0
 41 46  1  0  0  0
 41 94  1  0  0  0
 41 95  1  0  0  0
 42 43  1  0  0  0
 42 96  1  0  0  0
 42 97  1  0  0  0
 43 44  1  0  0  0
 43 98  1  0  0  0
 43 99  1  0  0  0
 44100  1  0  0  0
 44101  1  0  0  0
 46102  1  0  0  0
 47103  1  0  0  0
 49104  1  0  0  0
M  END
> <s_m_entry_id>
5

> <s_m_entry_name>
6boy.1_ligand

> <s_m_subgroup_title>
6BOY - minimized_split_by_structure

> <s_m_subgroupid>
6BOY - minimized_split_by_structure

> <b_m_subgroup_collapsed>
0

$$$$
