e3_ligand
                    3D
 Structure written by MMmdl.
 20 22  0  0  1  0            999 V2000
   69.0025   42.3626   49.2467 C   0  0  0  0  0  0
   69.4658   41.9423   50.4964 C   0  0  0  0  0  0
   69.6748   42.8755   51.5155 C   0  0  0  0  0  0
   69.4295   44.2302   51.3107 C   0  0  0  0  0  0
   68.9627   44.6309   50.0646 C   0  0  0  0  0  0
   68.5317   45.9663   49.6018 C   0  0  0  0  0  0
   67.5234   46.8379   47.4536 C   0  0  2  0  0  0
   68.2857   48.1989   47.4668 C   0  0  0  0  0  0
   66.2234   49.4646   46.9985 C   0  0  0  0  0  0
   65.4279   48.1540   46.8388 C   0  0  0  0  0  0
   66.0291   47.0634   47.7403 C   0  0  0  0  0  0
   68.7684   43.7338   49.0468 C   0  0  0  0  0  0
   68.2614   44.5005   47.8781 C   0  0  0  0  0  0
   68.1586   45.7925   48.3010 N   0  0  0  0  0  0
   67.5284   49.3027   47.2991 N   0  0  0  0  0  0
   65.7368   50.5790   46.8427 O   0  0  0  0  0  0
   69.4941   48.3032   47.6193 O   0  0  0  0  0  0
   68.5053   47.0052   50.2630 O   0  0  0  0  0  0
   67.9773   44.0594   46.7655 O   0  0  0  0  0  0
   68.8329   41.6396   48.4625 *   0  0  0  0  0  0
  1  2  2  0  0  0
  1 12  1  0  0  0
  1 20  1  0  0  0
  2  3  1  0  0  0
  3  4  2  0  0  0
  4  5  1  0  0  0
  5  6  1  0  0  0
  5 12  2  0  0  0
  6 14  1  0  0  0
  6 18  2  0  0  0
  7  8  1  0  0  0
  7 11  1  0  0  0
  7 14  1  0  0  0
  8 15  1  0  0  0
  8 17  2  0  0  0
  9 10  1  0  0  0
  9 15  1  0  0  0
  9 16  2  0  0  0
 10 11  1  0  0  0
 12 13  1  0  0  0
 13 14  1  0  0  0
 13 19  2  0  0  0
M  ISO  1   1 101
M  END
> <s_m_entry_id>
10

> <s_m_entry_name>
6boy.1_ligand

> <s_m_subgroup_title>
6BOY - minimized_split_by_structure

> <s_m_subgroupid>
6BOY - minimized_split_by_structure

> <b_m_subgroup_collapsed>
0

$$$$
