0:0:0
     RDKit          3D

 75 83  0  0  1  0  0  0  0  0999 V2000
  -37.3920   13.4970  -23.6960 C   0  0  0  0  0  0  0  0  0  0  0  0
  -36.6950   13.3900  -22.4680 C   0  0  0  0  0  3  0  0  0  0  0  0
  -35.4340   12.7640  -22.3870 C   0  0  0  0  0  0  0  0  0  0  0  0
  -35.5580   12.3180  -24.7860 C   0  0  0  0  0  3  0  0  0  0  0  0
  -36.8280   12.9340  -24.8640 C   0  0  0  0  0  0  0  0  0  0  0  0
  -34.8660   12.2450  -23.5660 C   0  0  0  0  0  3  0  0  0  0  0  0
  -35.2320   12.1680  -19.8880 C   0  0  0  0  0  0  0  0  0  0  0  0
  -33.0640   12.5080  -19.3300 C   0  0  0  0  0  3  0  0  0  0  0  0
  -34.7490   12.6130  -21.1030 C   0  0  0  0  0  0  0  0  0  0  0  0
  -34.2580   12.1130  -18.8880 N   0  0  0  0  0  0  0  0  0  0  0  0
  -33.0450   12.9990  -21.0110 S   0  0  0  0  0  0  0  0  0  0  0  0
  -36.6210   11.7300  -19.5430 C   0  0  0  0  0  1  0  0  0  0  0  0
  -37.5990   12.9850  -26.1820 C   0  0  0  0  0  2  0  0  0  0  0  0
  -36.2020   13.7300  -28.0900 C   0  0  0  0  0  0  0  0  0  0  0  0
  -36.4420   14.9290  -27.9190 O   0  0  0  0  0  0  0  0  0  0  0  0
  -36.7640   12.7640  -27.3580 N   0  0  0  0  0  0  0  0  0  0  0  0
  -36.5340   11.8050  -27.5770 H   0  0  0  0  0  0  0  0  0  0  0  0
  -36.1510   14.4570  -31.1120 C   0  0  0  0  0  0  0  0  0  0  0  0
  -35.1670   13.2790  -29.1340 C   0  0  0  0  0  3  0  0  0  0  0  0
  -33.6920   14.4940  -30.6150 C   0  0  0  0  0  2  0  0  0  0  0  0
  -35.0880   14.1460  -30.3250 N   0  0  0  0  0  0  0  0  0  0  0  0
  -37.2780   13.9940  -30.8940 O   0  0  0  0  0  0  0  0  0  0  0  0
  -33.7630   13.3130  -28.5060 C   0  0  0  0  0  2  0  0  0  0  0  0
  -32.8390   13.6720  -29.6520 C   0  0  0  0  0  3  0  0  0  0  0  0
  -32.4090   12.4990  -30.3230 O   0  0  0  0  0  0  0  0  0  0  0  0
  -33.1780   12.0250  -30.6220 H   0  0  0  0  0  0  0  0  0  0  0  0
  -35.9670   15.3780  -32.3480 C   0  0  0  0  0  3  0  0  0  0  0  0
  -36.7190   14.7720  -33.4590 N   0  0  0  0  0  0  0  0  0  0  0  0
  -36.2030   14.2220  -34.5690 C   0  0  0  0  0  0  0  0  0  0  0  0
  -34.9920   14.2400  -34.8060 O   0  0  0  0  0  0  0  0  0  0  0  0
  -37.7140   14.6550  -33.3210 H   0  0  0  0  0  0  0  0  0  0  0  0
  -37.1960   13.5790  -35.4990 C   0  0  1  0  0  0  0  0  0  0  0  0
  -38.4690   13.4580  -34.9640 F   0  0  0  0  0  0  0  0  0  0  0  0
  -37.1010   13.8430  -36.9840 C   0  0  0  0  0  2  0  0  0  0  0  0
  -36.7450   12.4800  -36.4360 C   0  0  0  0  0  2  0  0  0  0  0  0
  -35.7550   17.4890  -30.8650 C   0  0  0  0  0  1  0  0  0  0  0  0
  -36.0100   17.7190  -33.3210 C   0  0  0  0  0  1  0  0  0  0  0  0
  -37.9600   16.9910  -31.9310 C   0  0  0  0  0  1  0  0  0  0  0  0
  -36.4320   16.8620  -32.1090 C   0  0  1  0  0  0  0  0  0  0  0  0
  -38.6180   14.1190  -23.7880 O   0  0  0  0  0  0  0  0  0  0  0  0
  -40.1750   19.2610  -28.3310 N   0  0  0  0  0  0  0  0  0  0  0  0
  -39.9000   19.5760  -29.7360 C   0  0  0  0  0  2  0  0  0  0  0  0
  -41.1580   19.5170  -30.6430 C   0  0  0  0  0  2  0  0  0  0  0  0
  -42.1990   18.6490  -30.0880 N   0  0  0  0  0  0  0  0  0  0  0  0
  -42.6050   18.8510  -28.6980 C   0  0  0  0  0  2  0  0  0  0  0  0
  -41.5270   19.5820  -27.8690 C   0  0  0  0  0  2  0  0  0  0  0  0
  -37.0380   19.5900  -26.7490 C   0  0  0  0  0  3  0  0  0  0  0  0
  -37.2330   18.8880  -25.5500 C   0  0  0  0  0  0  0  0  0  0  0  0
  -38.4930   18.2770  -25.3840 C   0  0  0  0  0  0  0  0  0  0  0  0
  -39.1520   19.1170  -27.4110 C   0  0  0  0  0  0  0  0  0  0  0  0
  -40.1670   15.8790  -23.1290 C   0  0  0  0  0  2  0  0  0  0  0  0
  -40.1870   16.9160  -24.2390 C   0  0  0  0  0  2  0  0  0  0  0  0
  -37.9240   16.4320  -23.9020 C   0  0  0  0  0  2  0  0  0  0  0  0
  -38.7260   15.3740  -23.1210 C   0  0  0  0  0  3  0  0  0  0  0  0
  -36.1070   18.8550  -24.5230 C   0  0  0  0  0  1  0  0  0  0  0  0
  -37.9960   19.6930  -27.6850 N   0  0  0  0  0  0  0  0  0  0  0  0
  -39.4420   18.4330  -26.3190 N   0  0  0  0  0  0  0  0  0  0  0  0
  -38.8470   17.5000  -24.2590 N   0  0  0  0  0  0  0  0  0  0  0  0
  -43.1020   18.0400  -30.9850 C   0  0  0  0  0  0  0  0  0  0  0  0
  -44.4060   18.5310  -31.2080 C   0  0  0  0  0  3  0  0  0  0  0  0
  -45.2580   17.8460  -32.1160 C   0  0  0  0  0  0  0  0  0  0  0  0
  -44.8000   16.7280  -32.7520 N   0  0  0  0  0  0  0  0  0  0  0  0
  -43.5750   16.2400  -32.5420 N   0  0  0  0  0  0  0  0  0  0  0  0
  -42.7410   16.8710  -31.6910 C   0  0  0  0  0  0  0  0  0  0  0  0
  -41.5020   16.2850  -31.4980 N   0  0  0  0  0  0  0  0  0  0  0  0
  -41.0330   16.6330  -30.6710 H   0  0  0  0  0  0  0  0  0  0  0  0
  -41.4530   15.2860  -31.6250 H   0  0  0  0  0  0  0  0  0  0  0  0
  -46.6660   18.2710  -32.4270 C   0  0  0  0  0  0  0  0  0  0  0  0
  -47.5670   17.5450  -33.2740 C   0  0  0  0  0  0  0  0  0  0  0  0
  -48.8830   17.9960  -33.5010 C   0  0  0  0  0  3  0  0  0  0  0  0
  -49.3500   19.1770  -32.9070 C   0  0  0  0  0  3  0  0  0  0  0  0
  -48.4900   19.9180  -32.0840 C   0  0  0  0  0  3  0  0  0  0  0  0
  -47.1750   19.4680  -31.8550 C   0  0  0  0  0  3  0  0  0  0  0  0
  -47.2280   16.3830  -33.9080 O   0  0  0  0  0  0  0  0  0  0  0  0
  -46.3170   16.1510  -33.7240 H   0  0  0  0  0  0  0  0  0  0  0  0
  1  2  1  0
  2  3  2  0
  3  9  1  0
  4  6  2  0
  5  4  1  0
  5  1  2  0
  6  3  1  0
  7 12  1  0
  7 10  1  0
  8 10  2  0
  9 11  1  0
  9  7  2  0
 11  8  1  0
 13  5  1  0
 14 15  2  0
 14 16  1  0
 16 13  1  0
 17 16  1  0
 18 22  2  0
 18 21  1  0
 19 23  1  0
 19 14  1  0
 20 21  1  0
 20 24  1  0
 21 19  1  0
 24 25  1  0
 24 23  1  0
 26 25  1  0
 27 39  1  0
 27 18  1  0
 28 31  1  0
 28 27  1  0
 29 28  1  0
 30 29  2  0
 32 33  1  1
 32 29  1  0
 34 35  1  0
 34 32  1  0
 35 32  1  0
 39 37  1  6
 39 38  1  0
 39 36  1  0
 40  1  1  0
 41 46  1  0
 41 50  1  0
 42 41  1  0
 43 44  1  0
 43 42  1  0
 44 45  1  0
 45 46  1  0
 47 48  2  0
 48 49  1  0
 48 55  1  0
 49 58  1  0
 50 57  1  0
 51 54  1  0
 52 51  1  0
 53 54  1  0
 54 40  1  0
 56 50  2  0
 56 47  1  0
 57 49  2  0
 58 52  1  0
 58 53  1  0
 59 44  1  0
 60 59  1  0
 61 60  2  0
 62 63  2  0
 62 61  1  0
 63 64  1  0
 64 65  1  0
 64 59  2  0
 65 66  1  0
 67 65  1  0
 68 61  1  0
 68 73  1  0
 69 68  2  0
 70 69  1  0
 70 71  2  0
 71 72  1  0
 72 73  2  0
 74 75  1  0
 74 69  1  0
M  ISO  4  40 101  41 100  50 100  54 101
M  END
>  <TORSDO>  (1) 
F 14

>  <SCORE>  (1) 
-15.626

>  <name>  (1) 
0

>  <ligand_id>  (1) 
0

>  <original_smiles>  (1) 
[H]Oc1c([H])c([H])c([H])c([H])c1-c1nnc(N([H])[H])c(N2C([H])([H])C([H])([H])N(c3nc([H])c(C([H])([H])[H])c(N4C([H])([H])C([H])([H])C([H])(Oc5c([H])c(-c6sc([H])nc6C([H])([H])[H])c([H])c([H])c5C([H])([H])N([H])C(=O)C5([H])N(C(=O)C([H])(N([H])C(=O)C6(F)C([H])([H])C6([H])[H])C(C([H])([H])[H])(C([H])([H])[H])C([H])([H])[H])C([H])([H])C([H])(O[H])C5([H])[H])C4([H])[H])n3)C([H])([H])C2([H])[H])c1[H]

>  <smiles>  (1) 
[H]Oc1c([H])c([H])c([H])c([H])c1-c1nnc(N([H])[H])c(N2C([H])([H])C([H])([H])N(c3nc([H])c(C([H])([H])[H])c(N4C([H])([H])C([H])([H])C([H])(Oc5c([H])c(-c6sc([H])nc6C([H])([H])[H])c([H])c([H])c5C([H])([H])N([H])C(=O)C5([H])N(C(=O)C([H])(N([H])C(=O)C6(F)C([H])([H])C6([H])[H])C(C([H])([H])[H])(C([H])([H])[H])C([H])([H])[H])C([H])([H])C([H])(O[H])C5([H])[H])C4([H])[H])n3)C([H])([H])C2([H])[H])c1[H]

$$$$
1:0:0
     RDKit          3D

 75 83  0  0  1  0  0  0  0  0999 V2000
  -37.4230   13.4840  -23.7010 C   0  0  0  0  0  0  0  0  0  0  0  0
  -36.7390   13.3400  -22.4730 C   0  0  0  0  0  3  0  0  0  0  0  0
  -35.4680   12.7420  -22.4010 C   0  0  0  0  0  0  0  0  0  0  0  0
  -35.5790   12.3290  -24.8070 C   0  0  0  0  0  3  0  0  0  0  0  0
  -36.8510   12.9400  -24.8770 C   0  0  0  0  0  0  0  0  0  0  0  0
  -34.8880   12.2500  -23.5850 C   0  0  0  0  0  3  0  0  0  0  0  0
  -35.2730   12.1600  -19.9010 C   0  0  0  0  0  0  0  0  0  0  0  0
  -33.1080   12.5150  -19.3380 C   0  0  0  0  0  3  0  0  0  0  0  0
  -34.7860   12.5980  -21.1170 C   0  0  0  0  0  0  0  0  0  0  0  0
  -34.3030   12.1150  -18.8980 N   0  0  0  0  0  0  0  0  0  0  0  0
  -33.0880   13.0010  -21.0210 S   0  0  0  0  0  0  0  0  0  0  0  0
  -36.6630   11.7200  -19.5540 C   0  0  0  0  0  1  0  0  0  0  0  0
  -37.6220   12.9960  -26.1970 C   0  0  0  0  0  2  0  0  0  0  0  0
  -36.2250   13.7320  -28.1070 C   0  0  0  0  0  0  0  0  0  0  0  0
  -36.4620   14.9310  -27.9410 O   0  0  0  0  0  0  0  0  0  0  0  0
  -36.7910   12.7700  -27.3760 N   0  0  0  0  0  0  0  0  0  0  0  0
  -36.5640   11.8090  -27.5960 H   0  0  0  0  0  0  0  0  0  0  0  0
  -36.1630   14.4500  -31.1330 C   0  0  0  0  0  0  0  0  0  0  0  0
  -35.1880   13.2760  -29.1470 C   0  0  0  0  0  3  0  0  0  0  0  0
  -33.7060   14.4850  -30.6260 C   0  0  0  0  0  2  0  0  0  0  0  0
  -35.1040   14.1390  -30.3410 N   0  0  0  0  0  0  0  0  0  0  0  0
  -37.2910   13.9870  -30.9190 O   0  0  0  0  0  0  0  0  0  0  0  0
  -33.7860   13.3100  -28.5160 C   0  0  0  0  0  2  0  0  0  0  0  0
  -32.8560   13.6610  -29.6600 C   0  0  0  0  0  3  0  0  0  0  0  0
  -32.4280   12.4870  -30.3320 O   0  0  0  0  0  0  0  0  0  0  0  0
  -33.1980   12.0210  -30.6450 H   0  0  0  0  0  0  0  0  0  0  0  0
  -35.9750   15.3700  -32.3680 C   0  0  0  0  0  3  0  0  0  0  0  0
  -36.7320   14.7690  -33.4790 N   0  0  0  0  0  0  0  0  0  0  0  0
  -36.2210   14.2150  -34.5870 C   0  0  0  0  0  0  0  0  0  0  0  0
  -35.0110   14.2230  -34.8270 O   0  0  0  0  0  0  0  0  0  0  0  0
  -37.7280   14.6610  -33.3420 H   0  0  0  0  0  0  0  0  0  0  0  0
  -37.2200   13.5790  -35.5190 C   0  0  1  0  0  0  0  0  0  0  0  0
  -38.4930   13.4630  -34.9820 F   0  0  0  0  0  0  0  0  0  0  0  0
  -37.1250   13.8450  -37.0030 C   0  0  0  0  0  2  0  0  0  0  0  0
  -36.7780   12.4770  -36.4580 C   0  0  0  0  0  2  0  0  0  0  0  0
  -35.7500   17.4760  -30.8850 C   0  0  0  0  0  1  0  0  0  0  0  0
  -36.0100   17.7110  -33.3420 C   0  0  0  0  0  1  0  0  0  0  0  0
  -37.9590   16.9910  -31.9450 C   0  0  0  0  0  1  0  0  0  0  0  0
  -36.4320   16.8550  -32.1280 C   0  0  1  0  0  0  0  0  0  0  0  0
  -38.6350   14.1300  -23.8010 O   0  0  0  0  0  0  0  0  0  0  0  0
  -40.2150   19.2940  -28.4040 N   0  0  0  0  0  0  0  0  0  0  0  0
  -39.9530   19.6150  -29.8080 C   0  0  0  0  0  2  0  0  0  0  0  0
  -41.2160   19.5330  -30.7000 C   0  0  0  0  0  2  0  0  0  0  0  0
  -42.2220   18.6310  -30.1400 N   0  0  0  0  0  0  0  0  0  0  0  0
  -42.6430   18.8450  -28.7550 C   0  0  0  0  0  2  0  0  0  0  0  0
  -41.5700   19.5810  -27.9240 C   0  0  0  0  0  2  0  0  0  0  0  0
  -37.0600   19.1960  -26.9600 C   0  0  0  0  0  2  0  0  0  0  0  0
  -38.4970   18.1720  -25.6310 C   0  0  0  0  0  0  0  0  0  0  0  0
  -39.1770   19.0550  -27.5280 C   0  0  0  0  0  0  0  0  0  0  0  0
  -38.0650   16.1810  -22.4480 C   0  0  0  0  0  2  0  0  0  0  0  0
  -40.3010   15.7230  -23.3220 C   0  0  0  0  0  2  0  0  0  0  0  0
  -37.6480   16.9040  -23.7280 C   0  0  0  0  0  2  0  0  0  0  0  0
  -39.9580   16.4920  -24.6120 C   0  0  0  0  0  2  0  0  0  0  0  0
  -39.0540   15.0370  -22.7670 C   0  0  0  0  0  3  0  0  0  0  0  0
  -37.2410   18.5540  -25.8140 N   0  0  0  0  0  0  0  0  0  0  0  0
  -37.9750   19.4760  -27.8780 N   0  0  0  0  0  0  0  0  0  0  0  0
  -39.5130   18.4160  -26.4320 N   0  0  0  0  0  2  0  0  0  0  0  0
  -38.7920   17.3980  -24.5020 N   0  0  0  0  0  0  0  0  0  0  0  0
  -43.1200   18.0190  -31.0400 C   0  0  0  0  0  0  0  0  0  0  0  0
  -44.4310   18.4920  -31.2540 C   0  0  0  0  0  3  0  0  0  0  0  0
  -45.2720   17.8010  -32.1680 C   0  0  0  0  0  0  0  0  0  0  0  0
  -44.7950   16.7030  -32.8200 N   0  0  0  0  0  0  0  0  0  0  0  0
  -43.5600   16.2360  -32.6210 N   0  0  0  0  0  0  0  0  0  0  0  0
  -42.7380   16.8680  -31.7600 C   0  0  0  0  0  0  0  0  0  0  0  0
  -41.4900   16.3020  -31.5720 N   0  0  0  0  0  0  0  0  0  0  0  0
  -41.0470   16.6440  -30.7270 H   0  0  0  0  0  0  0  0  0  0  0  0
  -41.4350   15.3020  -31.6970 H   0  0  0  0  0  0  0  0  0  0  0  0
  -46.6910   18.2010  -32.4660 C   0  0  0  0  0  0  0  0  0  0  0  0
  -47.5770   17.4720  -33.3260 C   0  0  0  0  0  0  0  0  0  0  0  0
  -48.9030   17.8990  -33.5430 C   0  0  0  0  0  3  0  0  0  0  0  0
  -49.3960   19.0540  -32.9200 C   0  0  0  0  0  3  0  0  0  0  0  0
  -48.5530   19.7930  -32.0790 C   0  0  0  0  0  3  0  0  0  0  0  0
  -47.2270   19.3710  -31.8630 C   0  0  0  0  0  3  0  0  0  0  0  0
  -47.2100   16.3330  -33.9850 O   0  0  0  0  0  0  0  0  0  0  0  0
  -46.2940   16.1230  -33.8030 H   0  0  0  0  0  0  0  0  0  0  0  0
  1  2  1  0
  2  3  2  0
  3  9  1  0
  4  6  2  0
  5  4  1  0
  5  1  2  0
  6  3  1  0
  7 12  1  0
  7 10  1  0
  8 10  2  0
  9 11  1  0
  9  7  2  0
 11  8  1  0
 13  5  1  0
 14 15  2  0
 14 16  1  0
 16 13  1  0
 17 16  1  0
 18 22  2  0
 18 21  1  0
 19 23  1  0
 19 14  1  0
 20 21  1  0
 20 24  1  0
 21 19  1  0
 24 25  1  0
 24 23  1  0
 26 25  1  0
 27 39  1  0
 27 18  1  0
 28 31  1  0
 28 27  1  0
 29 28  1  0
 30 29  2  0
 32 33  1  1
 32 29  1  0
 34 35  1  0
 34 32  1  0
 35 32  1  0
 39 37  1  6
 39 38  1  0
 39 36  1  0
 40  1  1  0
 41 46  1  0
 41 49  1  0
 42 41  1  0
 43 44  1  0
 43 42  1  0
 44 45  1  0
 45 46  1  0
 47 55  1  0
 48 58  1  0
 49 57  1  0
 51 54  1  0
 52 50  1  0
 53 58  1  0
 53 51  1  0
 54 40  1  0
 54 50  1  0
 55 48  2  0
 56 49  2  0
 56 47  1  0
 57 48  1  0
 58 52  1  0
 59 44  1  0
 60 59  1  0
 61 60  2  0
 62 63  2  0
 62 61  1  0
 63 64  1  0
 64 65  1  0
 64 59  2  0
 65 66  1  0
 67 65  1  0
 68 61  1  0
 68 73  1  0
 69 68  2  0
 70 69  1  0
 70 71  2  0
 71 72  1  0
 72 73  2  0
 74 75  1  0
 74 69  1  0
M  ISO  4  40 101  41 100  49 100  54 101
M  END
>  <TORSDO>  (2) 
F 14

>  <SCORE>  (2) 
-15.409

>  <name>  (2) 
1

>  <ligand_id>  (2) 
1

>  <original_smiles>  (2) 
[H]Oc1c([H])c([H])c([H])c([H])c1-c1nnc(N([H])[H])c(N2C([H])([H])C([H])([H])N(c3nc([H])nc(N4C([H])([H])C([H])([H])C([H])(Oc5c([H])c(-c6sc([H])nc6C([H])([H])[H])c([H])c([H])c5C([H])([H])N([H])C(=O)C5([H])N(C(=O)C([H])(N([H])C(=O)C6(F)C([H])([H])C6([H])[H])C(C([H])([H])[H])(C([H])([H])[H])C([H])([H])[H])C([H])([H])C([H])(O[H])C5([H])[H])C([H])([H])C4([H])[H])n3)C([H])([H])C2([H])[H])c1[H]

>  <smiles>  (2) 
[H]Oc1c([H])c([H])c([H])c([H])c1-c1nnc(N([H])[H])c(N2C([H])([H])C([H])([H])N(c3nc([H])nc(N4C([H])([H])C([H])([H])C([H])(Oc5c([H])c(-c6sc([H])nc6C([H])([H])[H])c([H])c([H])c5C([H])([H])N([H])C(=O)C5([H])N(C(=O)C([H])(N([H])C(=O)C6(F)C([H])([H])C6([H])[H])C(C([H])([H])[H])(C([H])([H])[H])C([H])([H])[H])C([H])([H])C([H])(O[H])C5([H])[H])C([H])([H])C4([H])[H])n3)C([H])([H])C2([H])[H])c1[H]

$$$$
2:0:0
     RDKit          3D

 75 83  0  0  1  0  0  0  0  0999 V2000
  -37.4380   13.5360  -23.7760 C   0  0  0  0  0  0  0  0  0  0  0  0
  -36.7830   13.4120  -22.5290 C   0  0  0  0  0  3  0  0  0  0  0  0
  -35.5220   12.7850  -22.4240 C   0  0  0  0  0  0  0  0  0  0  0  0
  -35.5960   12.3370  -24.8280 C   0  0  0  0  0  3  0  0  0  0  0  0
  -36.8590   12.9600  -24.9280 C   0  0  0  0  0  0  0  0  0  0  0  0
  -34.9290   12.2670  -23.5920 C   0  0  0  0  0  3  0  0  0  0  0  0
  -35.3510   12.1890  -19.9230 C   0  0  0  0  0  0  0  0  0  0  0  0
  -33.1910   12.5380  -19.3370 C   0  0  0  0  0  3  0  0  0  0  0  0
  -34.8540   12.6370  -21.1310 C   0  0  0  0  0  0  0  0  0  0  0  0
  -34.3890   12.1350  -18.9120 N   0  0  0  0  0  0  0  0  0  0  0  0
  -33.1550   13.0330  -21.0160 S   0  0  0  0  0  0  0  0  0  0  0  0
  -36.7440   11.7430  -19.5960 C   0  0  0  0  0  1  0  0  0  0  0  0
  -37.6130   13.0090  -26.2570 C   0  0  0  0  0  2  0  0  0  0  0  0
  -36.2080   13.7570  -28.1530 C   0  0  0  0  0  0  0  0  0  0  0  0
  -36.4650   14.9530  -27.9960 O   0  0  0  0  0  0  0  0  0  0  0  0
  -36.7650   12.7900  -27.4210 N   0  0  0  0  0  0  0  0  0  0  0  0
  -36.5220   11.8310  -27.6330 H   0  0  0  0  0  0  0  0  0  0  0  0
  -36.1290   14.4570  -31.1800 C   0  0  0  0  0  0  0  0  0  0  0  0
  -35.1560   13.3070  -29.1790 C   0  0  0  0  0  3  0  0  0  0  0  0
  -33.6770   14.5230  -30.6530 C   0  0  0  0  0  2  0  0  0  0  0  0
  -35.0730   14.1630  -30.3780 N   0  0  0  0  0  0  0  0  0  0  0  0
  -37.2530   13.9840  -30.9720 O   0  0  0  0  0  0  0  0  0  0  0  0
  -33.7610   13.3650  -28.5340 C   0  0  0  0  0  2  0  0  0  0  0  0
  -32.8270   13.7150  -29.6750 C   0  0  0  0  0  3  0  0  0  0  0  0
  -32.3800   12.5380  -30.3310 O   0  0  0  0  0  0  0  0  0  0  0  0
  -33.1400   12.0600  -30.6460 H   0  0  0  0  0  0  0  0  0  0  0  0
  -35.9400   15.3680  -32.4210 C   0  0  0  0  0  3  0  0  0  0  0  0
  -36.6750   14.7460  -33.5360 N   0  0  0  0  0  0  0  0  0  0  0  0
  -36.1460   14.2060  -34.6430 C   0  0  0  0  0  0  0  0  0  0  0  0
  -34.9350   14.2470  -34.8770 O   0  0  0  0  0  0  0  0  0  0  0  0
  -37.6690   14.6120  -33.4020 H   0  0  0  0  0  0  0  0  0  0  0  0
  -37.1210   13.5420  -35.5790 C   0  0  1  0  0  0  0  0  0  0  0  0
  -38.3910   13.3860  -35.0440 F   0  0  0  0  0  0  0  0  0  0  0  0
  -37.0300   13.8130  -37.0620 C   0  0  0  0  0  2  0  0  0  0  0  0
  -36.6430   12.4570  -36.5180 C   0  0  0  0  0  2  0  0  0  0  0  0
  -35.7930   17.4790  -30.9340 C   0  0  0  0  0  1  0  0  0  0  0  0
  -35.9640   17.7080  -33.4020 C   0  0  0  0  0  1  0  0  0  0  0  0
  -37.9560   16.9700  -32.0760 C   0  0  0  0  0  1  0  0  0  0  0  0
  -36.4210   16.8500  -32.2020 C   0  0  1  0  0  0  0  0  0  0  0  0
  -38.6250   14.2140  -23.9230 O   0  0  0  0  0  0  0  0  0  0  0  0
  -40.2870   19.2590  -28.4390 N   0  0  0  0  0  0  0  0  0  0  0  0
  -39.9920   19.5450  -29.8470 C   0  0  0  0  0  2  0  0  0  0  0  0
  -41.2620   19.5200  -30.7410 C   0  0  0  0  0  2  0  0  0  0  0  0
  -42.3020   18.6530  -30.1810 N   0  0  0  0  0  0  0  0  0  0  0  0
  -42.7130   18.8720  -28.7930 C   0  0  0  0  0  2  0  0  0  0  0  0
  -41.6300   19.6010  -27.9650 C   0  0  0  0  0  2  0  0  0  0  0  0
  -39.2970   18.7760  -27.5620 C   0  0  0  0  0  0  0  0  0  0  0  0
  -38.6890   18.0310  -25.5210 C   0  0  0  0  0  0  0  0  0  0  0  0
  -37.5220   16.3380  -23.0690 C   0  0  0  0  0  2  0  0  0  0  0  0
  -38.0580   17.7530  -23.1760 C   0  0  0  0  0  2  0  0  0  0  0  0
  -38.7830   15.4700  -23.2530 C   0  0  0  0  0  3  0  0  0  0  0  0
  -39.6990   16.3550  -24.1340 C   0  0  0  0  0  3  0  0  0  0  0  0
  -41.1370   16.4390  -23.6050 C   0  0  0  0  0  1  0  0  0  0  0  0
  -39.6880   18.4320  -26.3210 N   0  0  0  0  0  4  0  0  0  0  0  0
  -38.0220   18.7050  -28.0070 N   0  0  0  0  0  2  0  0  0  0  0  0
  -37.3920   17.9450  -25.8970 N   0  0  0  0  0  0  0  0  0  0  0  0
  -37.0830   18.2800  -27.1540 N   0  0  0  0  0  0  0  0  0  0  0  0
  -39.0760   17.6770  -24.2140 N   0  0  0  0  0  0  0  0  0  0  0  0
  -43.2060   18.0350  -31.0690 C   0  0  0  0  0  0  0  0  0  0  0  0
  -44.5170   18.5140  -31.2800 C   0  0  0  0  0  3  0  0  0  0  0  0
  -45.3690   17.8200  -32.1800 C   0  0  0  0  0  0  0  0  0  0  0  0
  -44.9070   16.7070  -32.8190 N   0  0  0  0  0  0  0  0  0  0  0  0
  -43.6760   16.2300  -32.6190 N   0  0  0  0  0  0  0  0  0  0  0  0
  -42.8410   16.8680  -31.7740 C   0  0  0  0  0  0  0  0  0  0  0  0
  -41.6000   16.2880  -31.5830 N   0  0  0  0  0  0  0  0  0  0  0  0
  -41.1470   16.6320  -30.7460 H   0  0  0  0  0  0  0  0  0  0  0  0
  -41.5510   15.2860  -31.7100 H   0  0  0  0  0  0  0  0  0  0  0  0
  -46.7840   18.2330  -32.4770 C   0  0  0  0  0  0  0  0  0  0  0  0
  -47.6740   17.5170  -33.3440 C   0  0  0  0  0  0  0  0  0  0  0  0
  -48.9960   17.9550  -33.5590 C   0  0  0  0  0  3  0  0  0  0  0  0
  -49.4820   19.1110  -32.9300 C   0  0  0  0  0  3  0  0  0  0  0  0
  -48.6340   19.8370  -32.0840 C   0  0  0  0  0  3  0  0  0  0  0  0
  -47.3130   19.4030  -31.8680 C   0  0  0  0  0  3  0  0  0  0  0  0
  -47.3140   16.3800  -34.0100 O   0  0  0  0  0  0  0  0  0  0  0  0
  -46.3990   16.1620  -33.8260 H   0  0  0  0  0  0  0  0  0  0  0  0
  1  2  1  0
  2  3  2  0
  3  9  1  0
  4  6  2  0
  5  4  1  0
  5  1  2  0
  6  3  1  0
  7 12  1  0
  7 10  1  0
  8 10  2  0
  9 11  1  0
  9  7  2  0
 11  8  1  0
 13  5  1  0
 14 15  2  0
 14 16  1  0
 16 13  1  0
 17 16  1  0
 18 22  2  0
 18 21  1  0
 19 23  1  0
 19 14  1  0
 20 21  1  0
 20 24  1  0
 21 19  1  0
 24 25  1  0
 24 23  1  0
 26 25  1  0
 27 39  1  0
 27 18  1  0
 28 31  1  0
 28 27  1  0
 29 28  1  0
 30 29  2  0
 32 33  1  1
 32 29  1  0
 34 35  1  0
 34 32  1  0
 35 32  1  0
 39 37  1  6
 39 38  1  0
 39 36  1  0
 40  1  1  0
 41 46  1  0
 41 47  1  0
 42 41  1  0
 43 44  1  0
 43 42  1  0
 44 45  1  0
 45 46  1  0
 47 54  2  0
 48 58  1  0
 50 49  1  0
 51 40  1  0
 51 49  1  0
 52 53  1  0
 52 51  1  0
 54 48  2  0
 55 47  1  0
 55 57  1  0
 56 48  1  0
 57 56  2  0
 58 52  1  0
 58 50  1  0
 59 44  1  0
 60 59  1  0
 61 60  2  0
 62 63  2  0
 62 61  1  0
 63 64  1  0
 64 65  1  0
 64 59  2  0
 65 66  1  0
 67 65  1  0
 68 61  1  0
 68 73  1  0
 69 68  2  0
 70 69  1  0
 70 71  2  0
 71 72  1  0
 72 73  2  0
 74 75  1  0
 74 69  1  0
M  ISO  4  40 101  41 100  47 100  51 101
M  END
>  <TORSDO>  (3) 
F 14

>  <SCORE>  (3) 
-15.644

>  <name>  (3) 
2

>  <ligand_id>  (3) 
2

>  <original_smiles>  (3) 
[H]Oc1c([H])c([H])c([H])c([H])c1-c1nnc(N([H])[H])c(N2C([H])([H])C([H])([H])N(c3nnnc(N4C([H])([H])C([H])([H])C([H])(Oc5c([H])c(-c6sc([H])nc6C([H])([H])[H])c([H])c([H])c5C([H])([H])N([H])C(=O)C5([H])N(C(=O)C([H])(N([H])C(=O)C6(F)C([H])([H])C6([H])[H])C(C([H])([H])[H])(C([H])([H])[H])C([H])([H])[H])C([H])([H])C([H])(O[H])C5([H])[H])C4([H])C([H])([H])[H])n3)C([H])([H])C2([H])[H])c1[H]

>  <smiles>  (3) 
[H]Oc1c([H])c([H])c([H])c([H])c1-c1nnc(N([H])[H])c(N2C([H])([H])C([H])([H])N(c3nnnc(N4C([H])([H])C([H])([H])C([H])(Oc5c([H])c(-c6sc([H])nc6C([H])([H])[H])c([H])c([H])c5C([H])([H])N([H])C(=O)C5([H])N(C(=O)C([H])(N([H])C(=O)C6(F)C([H])([H])C6([H])[H])C(C([H])([H])[H])(C([H])([H])[H])C([H])([H])[H])C([H])([H])C([H])(O[H])C5([H])[H])C4([H])C([H])([H])[H])n3)C([H])([H])C2([H])[H])c1[H]

$$$$
3:0:0
     RDKit          3D

 80 88  0  0  1  0  0  0  0  0999 V2000
  -38.6260   13.9910  -23.7140 O   0  0  0  0  0  0  0  0  0  0  0  0
  -40.5170   13.7910  -22.4150 C   0  0  0  0  0  3  0  0  0  0  0  0
  -39.6670   13.1660  -23.3620 C   0  0  0  0  0  3  0  0  0  0  0  0
  -41.6120   14.6340  -24.2140 C   0  0  0  0  0  0  0  0  0  0  0  0
  -40.1720   17.8850  -25.3890 C   0  0  0  0  0  2  0  0  0  0  0  0
  -40.7730   16.0970  -27.1430 C   0  0  0  0  0  2  0  0  0  0  0  0
  -40.5530   16.8080  -24.3530 C   0  0  0  0  0  2  0  0  0  0  0  0
  -42.0030   16.0150  -26.2150 C   0  0  0  0  0  2  0  0  0  0  0  0
  -39.7870   17.1940  -26.7130 C   0  0  0  0  0  3  0  0  0  0  0  0
  -40.2350   13.8180  -20.9190 C   0  0  0  0  0  1  0  0  0  0  0  0
  -41.4760   14.6350  -22.8800 N   0  0  0  0  0  0  0  0  0  0  0  0
  -40.2780   12.8030  -24.5150 N   0  0  0  0  0  0  0  0  0  0  0  0
  -41.1800   13.6540  -25.0250 N   0  0  0  0  0  0  0  0  0  0  0  0
  -41.6220   15.8920  -24.8060 N   0  0  0  0  0  0  0  0  0  0  0  0
  -40.2520   19.0730  -28.3990 N   0  0  0  0  0  0  0  0  0  0  0  0
  -39.9590   19.6490  -29.7400 C   0  0  0  0  0  2  0  0  0  0  0  0
  -41.1680   19.4920  -30.7150 C   0  0  0  0  0  2  0  0  0  0  0  0
  -42.2170   18.6130  -30.1700 N   0  0  0  0  0  0  0  0  0  0  0  0
  -42.6820   18.8610  -28.8040 C   0  0  0  0  0  2  0  0  0  0  0  0
  -41.5920   19.4780  -27.9080 C   0  0  0  0  0  2  0  0  0  0  0  0
  -39.4730   18.0620  -27.9080 C   0  0  0  0  0  3  0  0  0  0  0  0
  -38.3750   17.6680  -28.5800 N   0  0  0  0  0  0  0  0  0  0  0  0
  -37.8630   16.8410  -28.2920 H   0  0  0  0  0  0  0  0  0  0  0  0
  -38.0990   18.1190  -29.4370 H   0  0  0  0  0  0  0  0  0  0  0  0
  -43.1300   18.0080  -31.0580 C   0  0  0  0  0  0  0  0  0  0  0  0
  -44.4300   18.5020  -31.2800 C   0  0  0  0  0  3  0  0  0  0  0  0
  -45.2910   17.8230  -32.1840 C   0  0  0  0  0  0  0  0  0  0  0  0
  -44.8400   16.7160  -32.8420 N   0  0  0  0  0  0  0  0  0  0  0  0
  -43.6080   16.2340  -32.6490 N   0  0  0  0  0  0  0  0  0  0  0  0
  -42.7840   16.8370  -31.7730 C   0  0  0  0  0  0  0  0  0  0  0  0
  -41.5390   16.2630  -31.6000 N   0  0  0  0  0  0  0  0  0  0  0  0
  -41.1300   15.9150  -32.4600 H   0  0  0  0  0  0  0  0  0  0  0  0
  -40.9290   16.8460  -31.0420 H   0  0  0  0  0  0  0  0  0  0  0  0
  -46.7090   18.2440  -32.4650 C   0  0  0  0  0  0  0  0  0  0  0  0
  -47.6000   17.5400  -33.3380 C   0  0  0  0  0  0  0  0  0  0  0  0
  -48.9180   17.9860  -33.5530 C   0  0  0  0  0  3  0  0  0  0  0  0
  -49.3990   19.1380  -32.9140 C   0  0  0  0  0  3  0  0  0  0  0  0
  -48.5560   19.8410  -32.0410 C   0  0  0  0  0  3  0  0  0  0  0  0
  -47.2330   19.4050  -31.8350 C   0  0  0  0  0  3  0  0  0  0  0  0
  -47.2470   16.4080  -34.0210 O   0  0  0  0  0  0  0  0  0  0  0  0
  -46.3260   16.1920  -33.8700 H   0  0  0  0  0  0  0  0  0  0  0  0
  -37.3750   13.4660  -23.6970 C   0  0  0  0  0  0  0  0  0  0  0  0
  -36.6830   13.4110  -22.4740 C   0  0  0  0  0  3  0  0  0  0  0  0
  -35.4150   12.8100  -22.3970 C   0  0  0  0  0  0  0  0  0  0  0  0
  -35.4990   12.3980  -24.8120 C   0  0  0  0  0  3  0  0  0  0  0  0
  -36.7830   12.9840  -24.8870 C   0  0  0  0  0  0  0  0  0  0  0  0
  -34.8250   12.3100  -23.5780 C   0  0  0  0  0  3  0  0  0  0  0  0
  -35.2300   12.1520  -19.9150 C   0  0  0  0  0  0  0  0  0  0  0  0
  -33.0720   12.5320  -19.3290 C   0  0  0  0  0  3  0  0  0  0  0  0
  -34.7440   12.6500  -21.1100 C   0  0  0  0  0  0  0  0  0  0  0  0
  -34.2600   12.0910  -18.9120 N   0  0  0  0  0  0  0  0  0  0  0  0
  -33.0540   13.0870  -20.9920 S   0  0  0  0  0  0  0  0  0  0  0  0
  -36.6150   11.6480  -19.6060 C   0  0  0  0  0  1  0  0  0  0  0  0
  -37.5430   13.0610  -26.2090 C   0  0  0  0  0  2  0  0  0  0  0  0
  -36.1890   13.7900  -28.1480 C   0  0  0  0  0  0  0  0  0  0  0  0
  -36.4730   14.9840  -28.0260 O   0  0  0  0  0  0  0  0  0  0  0  0
  -36.7040   12.8300  -27.3730 N   0  0  0  0  0  0  0  0  0  0  0  0
  -36.4010   11.8760  -27.5270 H   0  0  0  0  0  0  0  0  0  0  0  0
  -36.1160   14.4520  -31.1790 C   0  0  0  0  0  0  0  0  0  0  0  0
  -35.1430   13.3200  -29.1730 C   0  0  0  0  0  3  0  0  0  0  0  0
  -33.6580   14.4980  -30.6630 C   0  0  0  0  0  2  0  0  0  0  0  0
  -35.0590   14.1600  -30.3780 N   0  0  0  0  0  0  0  0  0  0  0  0
  -37.2440   13.9940  -30.9640 O   0  0  0  0  0  0  0  0  0  0  0  0
  -33.7480   13.3720  -28.5310 C   0  0  0  0  0  2  0  0  0  0  0  0
  -32.8150   13.6900  -29.6810 C   0  0  0  0  0  3  0  0  0  0  0  0
  -32.3670   12.5030  -30.3200 O   0  0  0  0  0  0  0  0  0  0  0  0
  -33.1180   12.0240  -30.6560 H   0  0  0  0  0  0  0  0  0  0  0  0
  -35.9260   15.3630  -32.4220 C   0  0  0  0  0  3  0  0  0  0  0  0
  -36.6950   14.7640  -33.5250 N   0  0  0  0  0  0  0  0  0  0  0  0
  -36.1970   14.2210  -34.6420 C   0  0  0  0  0  0  0  0  0  0  0  0
  -34.9910   14.2480  -34.9020 O   0  0  0  0  0  0  0  0  0  0  0  0
  -37.6870   14.6270  -33.3770 H   0  0  0  0  0  0  0  0  0  0  0  0
  -37.2050   13.5780  -35.5540 C   0  0  1  0  0  0  0  0  0  0  0  0
  -38.4590   13.4230  -34.9850 F   0  0  0  0  0  0  0  0  0  0  0  0
  -37.1550   13.8690  -37.0340 C   0  0  0  0  0  2  0  0  0  0  0  0
  -36.7590   12.5030  -36.5160 C   0  0  0  0  0  2  0  0  0  0  0  0
  -35.6960   17.4430  -30.9170 C   0  0  0  0  0  1  0  0  0  0  0  0
  -35.9010   17.7210  -33.3730 C   0  0  0  0  0  1  0  0  0  0  0  0
  -37.9010   17.0020  -32.0580 C   0  0  0  0  0  1  0  0  0  0  0  0
  -36.3670   16.8530  -32.1850 C   0  0  1  0  0  0  0  0  0  0  0  0
  1 42  1  0
  2 10  1  0
  3  1  1  0
  3  2  1  0
  4 11  2  0
  5  7  1  0
  6  9  1  0
  6  8  1  0
  8 14  1  0
  9 21  1  0
  9  5  1  0
 11  2  1  0
 12  3  1  0
 13 12  2  0
 13  4  1  0
 14  7  1  0
 14  4  1  0
 15 21  1  0
 15 20  1  0
 16 15  1  0
 17 18  1  0
 17 16  1  0
 18 19  1  0
 19 20  1  0
 21 22  1  0
 22 23  1  0
 24 22  1  0
 25 18  1  0
 26 25  1  0
 27 26  2  0
 28 29  2  0
 28 27  1  0
 29 30  1  0
 30 31  1  0
 30 25  2  0
 31 33  1  0
 32 31  1  0
 34 27  1  0
 34 39  1  0
 35 34  2  0
 36 35  1  0
 36 37  2  0
 37 38  1  0
 38 39  2  0
 40 41  1  0
 40 35  1  0
 42 43  1  0
 43 44  2  0
 44 50  1  0
 45 47  2  0
 46 45  1  0
 46 42  2  0
 47 44  1  0
 48 53  1  0
 48 51  1  0
 49 51  2  0
 50 52  1  0
 50 48  2  0
 52 49  1  0
 54 46  1  0
 55 56  2  0
 55 57  1  0
 57 54  1  0
 58 57  1  0
 59 63  2  0
 59 62  1  0
 60 64  1  0
 60 55  1  0
 61 62  1  0
 61 65  1  0
 62 60  1  0
 65 66  1  0
 65 64  1  0
 67 66  1  0
 68 80  1  0
 68 59  1  0
 69 72  1  0
 69 68  1  0
 70 69  1  0
 71 70  2  0
 73 74  1  1
 73 70  1  0
 75 76  1  0
 75 73  1  0
 76 73  1  0
 80 78  1  6
 80 79  1  0
 80 77  1  0
M  ISO  4   1 101   3 101  15 100  21 100
M  END
>  <TORSDO>  (4) 
F 15

>  <SCORE>  (4) 
-15.393

>  <name>  (4) 
3

>  <ligand_id>  (4) 
3

>  <original_smiles>  (4) 
[H]Oc1c([H])c([H])c([H])c([H])c1-c1nnc(N([H])[H])c(N2C([H])([H])C([H])([H])N(C(=[N+]([H])[H])C3([H])C([H])([H])C([H])([H])N(c4nnc(Oc5c([H])c(-c6sc([H])nc6C([H])([H])[H])c([H])c([H])c5C([H])([H])N([H])C(=O)C5([H])N(C(=O)C([H])(N([H])C(=O)C6(F)C([H])([H])C6([H])[H])C(C([H])([H])[H])(C([H])([H])[H])C([H])([H])[H])C([H])([H])C([H])(O[H])C5([H])[H])c(C([H])([H])[H])n4)C([H])([H])C3([H])[H])C([H])([H])C2([H])[H])c1[H]

>  <smiles>  (4) 
[H]Oc1c([H])c([H])c([H])c([H])c1-c1nnc(N([H])[H])c(N2C([H])([H])C([H])([H])N(C(=[N+]([H])[H])C3([H])C([H])([H])C([H])([H])N(c4nnc(Oc5c([H])c(-c6sc([H])nc6C([H])([H])[H])c([H])c([H])c5C([H])([H])N([H])C(=O)C5([H])N(C(=O)C([H])(N([H])C(=O)C6(F)C([H])([H])C6([H])[H])C(C([H])([H])[H])(C([H])([H])[H])C([H])([H])[H])C([H])([H])C([H])(O[H])C5([H])[H])c(C([H])([H])[H])n4)C([H])([H])C3([H])[H])C([H])([H])C2([H])[H])c1[H]

$$$$
4:0:0
     RDKit          3D

 74 82  0  0  1  0  0  0  0  0999 V2000
  -37.3870   13.5320  -23.7280 C   0  0  0  0  0  0  0  0  0  0  0  0
  -36.6830   13.4650  -22.4990 C   0  0  0  0  0  3  0  0  0  0  0  0
  -35.4140   12.8570  -22.4120 C   0  0  0  0  0  0  0  0  0  0  0  0
  -35.5180   12.3900  -24.8080 C   0  0  0  0  0  3  0  0  0  0  0  0
  -36.8020   12.9750  -24.8880 C   0  0  0  0  0  0  0  0  0  0  0  0
  -34.8310   12.3380  -23.5830 C   0  0  0  0  0  3  0  0  0  0  0  0
  -35.2010   12.2620  -19.9110 C   0  0  0  0  0  0  0  0  0  0  0  0
  -33.0460   12.6710  -19.3460 C   0  0  0  0  0  3  0  0  0  0  0  0
  -34.7290   12.7240  -21.1250 C   0  0  0  0  0  0  0  0  0  0  0  0
  -34.2290   12.2380  -18.9080 N   0  0  0  0  0  0  0  0  0  0  0  0
  -33.0390   13.1650  -21.0270 S   0  0  0  0  0  0  0  0  0  0  0  0
  -36.5760   11.7770  -19.5680 C   0  0  0  0  0  1  0  0  0  0  0  0
  -37.5730   12.9930  -26.2090 C   0  0  0  0  0  2  0  0  0  0  0  0
  -36.1890   13.7290  -28.1300 C   0  0  0  0  0  0  0  0  0  0  0  0
  -36.4470   14.9260  -27.9850 O   0  0  0  0  0  0  0  0  0  0  0  0
  -36.7360   12.7670  -27.3830 N   0  0  0  0  0  0  0  0  0  0  0  0
  -36.4920   11.8080  -27.5890 H   0  0  0  0  0  0  0  0  0  0  0  0
  -36.1180   14.4310  -31.1570 C   0  0  0  0  0  0  0  0  0  0  0  0
  -35.1450   13.2700  -29.1630 C   0  0  0  0  0  3  0  0  0  0  0  0
  -33.6620   14.4760  -30.6410 C   0  0  0  0  0  2  0  0  0  0  0  0
  -35.0600   14.1280  -30.3600 N   0  0  0  0  0  0  0  0  0  0  0  0
  -37.2440   13.9670  -30.9440 O   0  0  0  0  0  0  0  0  0  0  0  0
  -33.7450   13.3130  -28.5260 C   0  0  0  0  0  2  0  0  0  0  0  0
  -32.8140   13.6600  -29.6690 C   0  0  0  0  0  3  0  0  0  0  0  0
  -32.3800   12.4820  -30.3320 O   0  0  0  0  0  0  0  0  0  0  0  0
  -33.1470   12.0140  -30.6470 H   0  0  0  0  0  0  0  0  0  0  0  0
  -35.9270   15.3450  -32.3970 C   0  0  0  0  0  3  0  0  0  0  0  0
  -36.6910   14.7440  -33.5030 N   0  0  0  0  0  0  0  0  0  0  0  0
  -36.1890   14.2060  -34.6230 C   0  0  0  0  0  0  0  0  0  0  0  0
  -34.9820   14.2330  -34.8800 O   0  0  0  0  0  0  0  0  0  0  0  0
  -37.6840   14.6220  -33.3530 H   0  0  0  0  0  0  0  0  0  0  0  0
  -37.1920   13.5670  -35.5460 C   0  0  1  0  0  0  0  0  0  0  0  0
  -38.4530   13.4210  -34.9890 F   0  0  0  0  0  0  0  0  0  0  0  0
  -37.1270   13.8570  -37.0270 C   0  0  0  0  0  2  0  0  0  0  0  0
  -36.7470   12.4880  -36.5090 C   0  0  0  0  0  2  0  0  0  0  0  0
  -35.7130   17.4440  -30.9010 C   0  0  0  0  0  1  0  0  0  0  0  0
  -35.9180   17.6900  -33.3630 C   0  0  0  0  0  1  0  0  0  0  0  0
  -37.9030   16.9850  -32.0100 C   0  0  0  0  0  1  0  0  0  0  0  0
  -36.3730   16.8350  -32.1620 C   0  0  1  0  0  0  0  0  0  0  0  0
  -38.6460   14.0850  -23.8450 O   0  0  0  0  0  0  0  0  0  0  0  0
  -40.2690   19.2440  -28.3270 N   0  0  0  0  0  0  0  0  0  0  0  0
  -39.9950   19.6180  -29.7220 C   0  0  0  0  0  2  0  0  0  0  0  0
  -41.2520   19.5570  -30.6320 C   0  0  0  0  0  2  0  0  0  0  0  0
  -42.2600   18.6350  -30.1050 N   0  0  0  0  0  0  0  0  0  0  0  0
  -42.6930   18.8190  -28.7190 C   0  0  0  0  0  2  0  0  0  0  0  0
  -41.6280   19.5500  -27.8680 C   0  0  0  0  0  2  0  0  0  0  0  0
  -37.2160   18.1320  -27.0720 C   0  0  0  0  0  2  0  0  0  0  0  0
  -38.8020   17.5600  -25.6640 C   0  0  0  0  0  0  0  0  0  0  0  0
  -39.3160   18.6310  -27.5220 C   0  0  0  0  0  0  0  0  0  0  0  0
  -40.4970   15.4480  -23.1450 C   0  0  0  0  0  2  0  0  0  0  0  0
  -40.5450   16.3440  -24.3810 C   0  0  0  0  0  2  0  0  0  0  0  0
  -38.3410   16.4370  -23.4510 C   0  0  0  0  0  2  0  0  0  0  0  0
  -39.0110   15.1480  -22.9650 C   0  0  0  0  0  3  0  0  0  0  0  0
  -37.5050   17.5780  -25.9020 N   0  0  0  0  0  0  0  0  0  0  0  0
  -38.0590   18.6990  -27.9260 N   0  0  0  0  0  0  0  0  0  0  0  0
  -39.7600   18.0670  -26.4150 N   0  0  0  0  0  2  0  0  0  0  0  0
  -39.2260   16.9610  -24.4880 N   0  0  0  0  0  0  0  0  0  0  0  0
  -43.1350   18.0160  -31.0230 C   0  0  0  0  0  0  0  0  0  0  0  0
  -44.4580   18.4590  -31.2400 C   0  0  0  0  0  3  0  0  0  0  0  0
  -45.2770   17.7620  -32.1690 C   0  0  0  0  0  0  0  0  0  0  0  0
  -44.7710   16.6820  -32.8320 N   0  0  0  0  0  0  0  0  0  0  0  0
  -43.5260   16.2410  -32.6280 N   0  0  0  0  0  0  0  0  0  0  0  0
  -42.7240   16.8810  -31.7550 C   0  0  0  0  0  0  0  0  0  0  0  0
  -41.4660   16.3380  -31.5640 N   0  0  0  0  0  0  0  0  0  0  0  0
  -41.0360   16.6770  -30.7130 H   0  0  0  0  0  0  0  0  0  0  0  0
  -41.3910   15.3410  -31.7020 H   0  0  0  0  0  0  0  0  0  0  0  0
  -46.7030   18.1330  -32.4740 C   0  0  0  0  0  0  0  0  0  0  0  0
  -47.5730   17.3820  -33.3300 C   0  0  0  0  0  0  0  0  0  0  0  0
  -48.9060   17.7830  -33.5520 C   0  0  0  0  0  3  0  0  0  0  0  0
  -49.4210   18.9350  -32.9400 C   0  0  0  0  0  3  0  0  0  0  0  0
  -48.5920   19.6960  -32.1050 C   0  0  0  0  0  3  0  0  0  0  0  0
  -47.2610   19.2990  -31.8820 C   0  0  0  0  0  3  0  0  0  0  0  0
  -47.1850   16.2440  -33.9790 O   0  0  0  0  0  0  0  0  0  0  0  0
  -46.2660   16.0500  -33.7940 H   0  0  0  0  0  0  0  0  0  0  0  0
  1  2  1  0
  2  3  2  0
  3  9  1  0
  4  6  2  0
  5  4  1  0
  5  1  2  0
  6  3  1  0
  7 12  1  0
  7 10  1  0
  8 10  2  0
  9 11  1  0
  9  7  2  0
 11  8  1  0
 13  5  1  0
 14 15  2  0
 14 16  1  0
 16 13  1  0
 17 16  1  0
 18 22  2  0
 18 21  1  0
 19 23  1  0
 19 14  1  0
 20 21  1  0
 20 24  1  0
 21 19  1  0
 24 25  1  0
 24 23  1  0
 26 25  1  0
 27 39  1  0
 27 18  1  0
 28 31  1  0
 28 27  1  0
 29 28  1  0
 30 29  2  0
 32 33  1  1
 32 29  1  0
 34 35  1  0
 34 32  1  0
 35 32  1  0
 39 37  1  6
 39 38  1  0
 39 36  1  0
 40  1  1  0
 41 46  1  0
 41 49  1  0
 42 41  1  0
 43 44  1  0
 43 42  1  0
 44 45  1  0
 45 46  1  0
 47 54  1  0
 48 57  1  0
 49 56  1  0
 50 53  1  0
 51 50  1  0
 52 53  1  0
 53 40  1  0
 54 48  2  0
 55 49  2  0
 55 47  1  0
 56 48  1  0
 57 51  1  0
 57 52  1  0
 58 44  1  0
 59 58  1  0
 60 59  2  0
 61 62  2  0
 61 60  1  0
 62 63  1  0
 63 64  1  0
 63 58  2  0
 64 65  1  0
 66 64  1  0
 67 60  1  0
 67 72  1  0
 68 67  2  0
 69 68  1  0
 69 70  2  0
 70 71  1  0
 71 72  2  0
 73 74  1  0
 73 68  1  0
M  ISO  4  40 101  41 100  49 100  53 101
M  END
>  <TORSDO>  (5) 
F 14

>  <SCORE>  (5) 
-15.331

>  <name>  (5) 
4

>  <ligand_id>  (5) 
4

>  <original_smiles>  (5) 
[H]Oc1c([H])c([H])c([H])c([H])c1-c1nnc(N([H])[H])c(N2C([H])([H])C([H])([H])N(c3nc([H])nc(N4C([H])([H])C([H])([H])C([H])(Oc5c([H])c(-c6sc([H])nc6C([H])([H])[H])c([H])c([H])c5C([H])([H])N([H])C(=O)C5([H])N(C(=O)C([H])(N([H])C(=O)C6(F)C([H])([H])C6([H])[H])C(C([H])([H])[H])(C([H])([H])[H])C([H])([H])[H])C([H])([H])C([H])(O[H])C5([H])[H])C4([H])[H])n3)C([H])([H])C2([H])[H])c1[H]

>  <smiles>  (5) 
[H]Oc1c([H])c([H])c([H])c([H])c1-c1nnc(N([H])[H])c(N2C([H])([H])C([H])([H])N(c3nc([H])nc(N4C([H])([H])C([H])([H])C([H])(Oc5c([H])c(-c6sc([H])nc6C([H])([H])[H])c([H])c([H])c5C([H])([H])N([H])C(=O)C5([H])N(C(=O)C([H])(N([H])C(=O)C6(F)C([H])([H])C6([H])[H])C(C([H])([H])[H])(C([H])([H])[H])C([H])([H])[H])C([H])([H])C([H])(O[H])C5([H])[H])C4([H])[H])n3)C([H])([H])C2([H])[H])c1[H]

$$$$
5:0:0
     RDKit          3D

 75 83  0  0  1  0  0  0  0  0999 V2000
  -37.4220   13.4710  -23.7580 C   0  0  0  0  0  0  0  0  0  0  0  0
  -36.7570   13.3670  -22.5220 C   0  0  0  0  0  3  0  0  0  0  0  0
  -35.4890   12.7620  -22.4300 C   0  0  0  0  0  0  0  0  0  0  0  0
  -35.5790   12.3170  -24.8370 C   0  0  0  0  0  3  0  0  0  0  0  0
  -36.8540   12.9180  -24.9260 C   0  0  0  0  0  0  0  0  0  0  0  0
  -34.9000   12.2560  -23.6070 C   0  0  0  0  0  3  0  0  0  0  0  0
  -35.3050   12.1910  -19.9290 C   0  0  0  0  0  0  0  0  0  0  0  0
  -33.1490   12.5680  -19.3460 C   0  0  0  0  0  3  0  0  0  0  0  0
  -34.8130   12.6350  -21.1410 C   0  0  0  0  0  0  0  0  0  0  0  0
  -34.3430   12.1540  -18.9180 N   0  0  0  0  0  0  0  0  0  0  0  0
  -33.1200   13.0600  -21.0280 S   0  0  0  0  0  0  0  0  0  0  0  0
  -36.6920   11.7300  -19.5980 C   0  0  0  0  0  1  0  0  0  0  0  0
  -37.6100   12.9800  -26.2540 C   0  0  0  0  0  2  0  0  0  0  0  0
  -36.2010   13.7280  -28.1580 C   0  0  0  0  0  0  0  0  0  0  0  0
  -36.4510   14.9260  -28.0050 O   0  0  0  0  0  0  0  0  0  0  0  0
  -36.7610   12.7650  -27.4200 N   0  0  0  0  0  0  0  0  0  0  0  0
  -36.5070   11.8070  -27.6230 H   0  0  0  0  0  0  0  0  0  0  0  0
  -36.1060   14.4340  -31.1850 C   0  0  0  0  0  0  0  0  0  0  0  0
  -35.1560   13.2660  -29.1860 C   0  0  0  0  0  3  0  0  0  0  0  0
  -33.6530   14.4580  -30.6560 C   0  0  0  0  0  2  0  0  0  0  0  0
  -35.0550   14.1220  -30.3810 N   0  0  0  0  0  0  0  0  0  0  0  0
  -37.2370   13.9780  -30.9800 O   0  0  0  0  0  0  0  0  0  0  0  0
  -33.7620   13.2940  -28.5410 C   0  0  0  0  0  2  0  0  0  0  0  0
  -32.8180   13.6370  -29.6760 C   0  0  0  0  0  3  0  0  0  0  0  0
  -32.3830   12.4570  -30.3350 O   0  0  0  0  0  0  0  0  0  0  0  0
  -33.1480   11.9900  -30.6570 H   0  0  0  0  0  0  0  0  0  0  0  0
  -35.9000   15.3490  -32.4220 C   0  0  0  0  0  3  0  0  0  0  0  0
  -36.6720   14.7600  -33.5290 N   0  0  0  0  0  0  0  0  0  0  0  0
  -36.1750   14.2120  -34.6480 C   0  0  0  0  0  0  0  0  0  0  0  0
  -34.9670   14.2170  -34.9000 O   0  0  0  0  0  0  0  0  0  0  0  0
  -37.6670   14.6560  -33.3810 H   0  0  0  0  0  0  0  0  0  0  0  0
  -37.1840   13.5870  -35.5760 C   0  0  1  0  0  0  0  0  0  0  0  0
  -38.4500   13.4630  -35.0250 F   0  0  0  0  0  0  0  0  0  0  0  0
  -37.1080   13.8670  -37.0580 C   0  0  0  0  0  2  0  0  0  0  0  0
  -36.7520   12.4960  -36.5300 C   0  0  0  0  0  2  0  0  0  0  0  0
  -35.6610   17.4390  -30.9210 C   0  0  0  0  0  1  0  0  0  0  0  0
  -35.8580   17.6970  -33.3840 C   0  0  0  0  0  1  0  0  0  0  0  0
  -37.8560   17.0170  -32.0330 C   0  0  0  0  0  1  0  0  0  0  0  0
  -36.3280   16.8440  -32.1850 C   0  0  1  0  0  0  0  0  0  0  0  0
  -38.5210   14.2750  -23.8430 O   0  0  0  0  0  0  0  0  0  0  0  0
  -40.2560   19.3070  -28.4600 N   0  0  0  0  0  0  0  0  0  0  0  0
  -39.9510   19.6390  -29.8510 C   0  0  0  0  0  2  0  0  0  0  0  0
  -41.2010   19.5230  -30.7710 C   0  0  0  0  0  2  0  0  0  0  0  0
  -42.2350   18.6520  -30.2040 N   0  0  0  0  0  0  0  0  0  0  0  0
  -42.6690   18.8890  -28.8280 C   0  0  0  0  0  2  0  0  0  0  0  0
  -41.6040   19.6290  -28.0010 C   0  0  0  0  0  2  0  0  0  0  0  0
  -38.4240   20.6170  -27.4300 C   0  0  0  0  0  3  0  0  0  0  0  0
  -37.6500   20.7290  -26.2680 C   0  0  0  0  0  3  0  0  0  0  0  0
  -39.3230   19.5540  -27.4600 C   0  0  0  0  0  0  0  0  0  0  0  0
  -38.6170   18.8310  -25.4130 C   0  0  0  0  0  0  0  0  0  0  0  0
  -38.9670   16.5150  -24.7370 C   0  0  0  0  0  0  0  0  0  0  0  0
  -37.7580   16.4240  -22.7140 C   0  0  0  0  0  2  0  0  0  0  0  0
  -37.8140   17.8620  -23.2530 C   0  0  0  0  0  2  0  0  0  0  0  0
  -38.0320   15.6160  -23.9790 C   0  0  0  0  0  3  0  0  0  0  0  0
  -37.7470   19.8320  -25.2630 N   0  0  0  0  0  0  0  0  0  0  0  0
  -39.4160   18.6990  -26.4530 N   0  0  0  0  0  0  0  0  0  0  0  0
  -38.6110   17.7970  -24.4900 N   0  0  0  0  0  0  0  0  0  0  0  0
  -39.8940   16.0720  -25.4280 O   0  0  0  0  0  0  0  0  0  0  0  0
  -43.1470   18.0440  -31.0900 C   0  0  0  0  0  0  0  0  0  0  0  0
  -44.4500   18.5380  -31.3010 C   0  0  0  0  0  3  0  0  0  0  0  0
  -45.3130   17.8470  -32.1940 C   0  0  0  0  0  0  0  0  0  0  0  0
  -44.8620   16.7250  -32.8260 N   0  0  0  0  0  0  0  0  0  0  0  0
  -43.6350   16.2350  -32.6250 N   0  0  0  0  0  0  0  0  0  0  0  0
  -42.7930   16.8680  -31.7860 C   0  0  0  0  0  0  0  0  0  0  0  0
  -41.5560   16.2830  -31.5910 N   0  0  0  0  0  0  0  0  0  0  0  0
  -41.0920   16.6530  -30.7680 H   0  0  0  0  0  0  0  0  0  0  0  0
  -41.5170   15.2780  -31.6800 H   0  0  0  0  0  0  0  0  0  0  0  0
  -46.7240   18.2730  -32.4920 C   0  0  0  0  0  0  0  0  0  0  0  0
  -47.6280   17.5500  -33.3380 C   0  0  0  0  0  0  0  0  0  0  0  0
  -48.9450   18.0000  -33.5570 C   0  0  0  0  0  3  0  0  0  0  0  0
  -49.4120   19.1740  -32.9500 C   0  0  0  0  0  3  0  0  0  0  0  0
  -48.5500   19.9090  -32.1250 C   0  0  0  0  0  3  0  0  0  0  0  0
  -47.2340   19.4630  -31.9060 C   0  0  0  0  0  3  0  0  0  0  0  0
  -47.2850   16.3940  -33.9790 O   0  0  0  0  0  0  0  0  0  0  0  0
  -46.3730   16.1690  -33.7930 H   0  0  0  0  0  0  0  0  0  0  0  0
  1  2  1  0
  2  3  2  0
  3  9  1  0
  4  6  2  0
  5  4  1  0
  5  1  2  0
  6  3  1  0
  7 12  1  0
  7 10  1  0
  8 10  2  0
  9 11  1  0
  9  7  2  0
 11  8  1  0
 13  5  1  0
 14 15  2  0
 14 16  1  0
 16 13  1  0
 17 16  1  0
 18 22  2  0
 18 21  1  0
 19 23  1  0
 19 14  1  0
 20 21  1  0
 20 24  1  0
 21 19  1  0
 24 25  1  0
 24 23  1  0
 26 25  1  0
 27 39  1  0
 27 18  1  0
 28 31  1  0
 28 27  1  0
 29 28  1  0
 30 29  2  0
 32 33  1  1
 32 29  1  0
 34 35  1  0
 34 32  1  0
 35 32  1  0
 39 37  1  6
 39 38  1  0
 39 36  1  0
 40  1  1  0
 41 46  1  0
 41 49  1  0
 42 41  1  0
 43 44  1  0
 43 42  1  0
 44 45  1  0
 45 46  1  0
 47 48  2  0
 48 55  1  0
 49 47  1  0
 49 56  2  0
 50 55  2  0
 50 57  1  0
 51 57  1  0
 51 54  1  0
 53 52  1  0
 54 40  1  0
 54 52  1  0
 56 50  1  0
 57 53  1  0
 58 51  2  0
 59 44  1  0
 60 59  1  0
 61 60  2  0
 62 63  2  0
 62 61  1  0
 63 64  1  0
 64 65  1  0
 64 59  2  0
 65 66  1  0
 67 65  1  0
 68 61  1  0
 68 73  1  0
 69 68  2  0
 70 69  1  0
 70 71  2  0
 71 72  1  0
 72 73  2  0
 74 75  1  0
 74 69  1  0
M  ISO  4  40 101  41 100  49 100  54 101
M  END
>  <TORSDO>  (6) 
F 14

>  <SCORE>  (6) 
-15.369

>  <name>  (6) 
5

>  <ligand_id>  (6) 
5

>  <original_smiles>  (6) 
[H]Oc1c([H])c([H])c([H])c([H])c1-c1nnc(N([H])[H])c(N2C([H])([H])C([H])([H])N(c3nc(N4C(=O)C([H])(Oc5c([H])c(-c6sc([H])nc6C([H])([H])[H])c([H])c([H])c5C([H])([H])N([H])C(=O)C5([H])N(C(=O)C([H])(N([H])C(=O)C6(F)C([H])([H])C6([H])[H])C(C([H])([H])[H])(C([H])([H])[H])C([H])([H])[H])C([H])([H])C([H])(O[H])C5([H])[H])C([H])([H])C4([H])[H])nc([H])c3[H])C([H])([H])C2([H])[H])c1[H]

>  <smiles>  (6) 
[H]Oc1c([H])c([H])c([H])c([H])c1-c1nnc(N([H])[H])c(N2C([H])([H])C([H])([H])N(c3nc(N4C(=O)C([H])(Oc5c([H])c(-c6sc([H])nc6C([H])([H])[H])c([H])c([H])c5C([H])([H])N([H])C(=O)C5([H])N(C(=O)C([H])(N([H])C(=O)C6(F)C([H])([H])C6([H])[H])C(C([H])([H])[H])(C([H])([H])[H])C([H])([H])[H])C([H])([H])C([H])(O[H])C5([H])[H])C([H])([H])C4([H])[H])nc([H])c3[H])C([H])([H])C2([H])[H])c1[H]

$$$$
6:0:0
     RDKit          3D

 78 86  0  0  1  0  0  0  0  0999 V2000
  -37.4420   13.4210  -23.6740 C   0  0  0  0  0  0  0  0  0  0  0  0
  -36.7070   13.3540  -22.4750 C   0  0  0  0  0  3  0  0  0  0  0  0
  -35.4330   12.7710  -22.4040 C   0  0  0  0  0  0  0  0  0  0  0  0
  -35.5530   12.3920  -24.8130 C   0  0  0  0  0  3  0  0  0  0  0  0
  -36.8560   12.9460  -24.8820 C   0  0  0  0  0  0  0  0  0  0  0  0
  -34.8540   12.3010  -23.5960 C   0  0  0  0  0  3  0  0  0  0  0  0
  -35.2350   12.1290  -19.9170 C   0  0  0  0  0  0  0  0  0  0  0  0
  -33.0800   12.5170  -19.3370 C   0  0  0  0  0  3  0  0  0  0  0  0
  -34.7530   12.6120  -21.1200 C   0  0  0  0  0  0  0  0  0  0  0  0
  -34.2640   12.0780  -18.9130 N   0  0  0  0  0  0  0  0  0  0  0  0
  -33.0650   13.0490  -21.0080 S   0  0  0  0  0  0  0  0  0  0  0  0
  -36.6160   11.6470  -19.5870 C   0  0  0  0  0  1  0  0  0  0  0  0
  -37.5830   12.9560  -26.2240 C   0  0  0  0  0  2  0  0  0  0  0  0
  -36.2100   13.7430  -28.1220 C   0  0  0  0  0  0  0  0  0  0  0  0
  -36.4930   14.9370  -27.9730 O   0  0  0  0  0  0  0  0  0  0  0  0
  -36.7270   12.7650  -27.3790 N   0  0  0  0  0  0  0  0  0  0  0  0
  -36.4530   11.8150  -27.5900 H   0  0  0  0  0  0  0  0  0  0  0  0
  -36.1540   14.4570  -31.1410 C   0  0  0  0  0  0  0  0  0  0  0  0
  -35.1730   13.2910  -29.1570 C   0  0  0  0  0  3  0  0  0  0  0  0
  -33.6950   14.4910  -30.6350 C   0  0  0  0  0  2  0  0  0  0  0  0
  -35.0930   14.1490  -30.3510 N   0  0  0  0  0  0  0  0  0  0  0  0
  -37.2820   14.0000  -30.9220 O   0  0  0  0  0  0  0  0  0  0  0  0
  -33.7750   13.3260  -28.5200 C   0  0  0  0  0  2  0  0  0  0  0  0
  -32.8480   13.6670  -29.6660 C   0  0  0  0  0  3  0  0  0  0  0  0
  -32.4280   12.4840  -30.3300 O   0  0  0  0  0  0  0  0  0  0  0  0
  -33.2020   12.0160  -30.6290 H   0  0  0  0  0  0  0  0  0  0  0  0
  -35.9660   15.3740  -32.3780 C   0  0  0  0  0  3  0  0  0  0  0  0
  -36.7260   14.7730  -33.4870 N   0  0  0  0  0  0  0  0  0  0  0  0
  -36.2150   14.2170  -34.5950 C   0  0  0  0  0  0  0  0  0  0  0  0
  -35.0050   14.2280  -34.8340 O   0  0  0  0  0  0  0  0  0  0  0  0
  -37.7220   14.6670  -33.3480 H   0  0  0  0  0  0  0  0  0  0  0  0
  -37.2120   13.5780  -35.5240 C   0  0  1  0  0  0  0  0  0  0  0  0
  -38.4840   13.4600  -34.9870 F   0  0  0  0  0  0  0  0  0  0  0  0
  -37.1180   13.8440  -37.0090 C   0  0  0  0  0  2  0  0  0  0  0  0
  -36.7650   12.4790  -36.4620 C   0  0  0  0  0  2  0  0  0  0  0  0
  -35.7510   17.4720  -30.8860 C   0  0  0  0  0  1  0  0  0  0  0  0
  -35.9770   17.7200  -33.3440 C   0  0  0  0  0  1  0  0  0  0  0  0
  -37.9520   17.0020  -31.9830 C   0  0  0  0  0  1  0  0  0  0  0  0
  -36.4210   16.8610  -32.1410 C   0  0  1  0  0  0  0  0  0  0  0  0
  -38.6910   13.9380  -23.4410 O   0  0  0  0  0  0  0  0  0  0  0  0
  -40.7220   17.6630  -25.7410 C   0  0  0  0  0  3  0  0  0  0  0  0
  -41.5250   16.8890  -24.8940 C   0  0  0  0  0  3  0  0  0  0  0  0
  -40.9670   15.9270  -27.4010 C   0  0  0  0  0  3  0  0  0  0  0  0
  -40.4150   17.1600  -27.0140 C   0  0  0  0  0  0  0  0  0  0  0  0
  -41.8730   15.5820  -25.2930 C   0  0  0  0  0  0  0  0  0  0  0  0
  -40.5970   12.7060  -24.6860 C   0  0  0  0  0  2  0  0  0  0  0  0
  -42.0700   13.1930  -24.6960 C   0  0  0  0  0  2  0  0  0  0  0  0
  -40.8840   14.6340  -23.4390 C   0  0  0  0  0  2  0  0  0  0  0  0
  -39.8040   13.9640  -24.2900 C   0  0  0  0  0  3  0  0  0  0  0  0
  -41.6780   15.1500  -26.5590 N   0  0  0  0  0  0  0  0  0  0  0  0
  -42.0690   14.6070  -24.2880 N   0  0  0  0  0  0  0  0  0  0  0  0
  -40.1820   19.1000  -28.4520 N   0  0  0  0  0  0  0  0  0  0  0  0
  -39.8640   19.5820  -29.8060 C   0  0  0  0  0  2  0  0  0  0  0  0
  -41.0980   19.4130  -30.7430 C   0  0  0  0  0  2  0  0  0  0  0  0
  -42.1690   18.5980  -30.1450 N   0  0  0  0  0  0  0  0  0  0  0  0
  -42.6150   18.9430  -28.7910 C   0  0  0  0  0  2  0  0  0  0  0  0
  -41.4850   19.6050  -27.9770 C   0  0  0  0  0  2  0  0  0  0  0  0
  -39.6570   17.9460  -27.9780 C   0  0  0  0  0  3  0  0  0  0  0  0
  -38.4770   17.4790  -28.4260 N   0  0  0  0  0  0  0  0  0  0  0  0
  -38.0740   16.6230  -28.0680 H   0  0  0  0  0  0  0  0  0  0  0  0
  -37.8800   18.0570  -28.9980 H   0  0  0  0  0  0  0  0  0  0  0  0
  -43.1010   18.0170  -31.0350 C   0  0  0  0  0  0  0  0  0  0  0  0
  -44.4010   18.5320  -31.2350 C   0  0  0  0  0  3  0  0  0  0  0  0
  -45.2750   17.8720  -32.1400 C   0  0  0  0  0  0  0  0  0  0  0  0
  -44.8430   16.7590  -32.7990 N   0  0  0  0  0  0  0  0  0  0  0  0
  -43.6240   16.2500  -32.6140 N   0  0  0  0  0  0  0  0  0  0  0  0
  -42.7700   16.8510  -31.7630 C   0  0  0  0  0  0  0  0  0  0  0  0
  -41.5420   16.2380  -31.5940 N   0  0  0  0  0  0  0  0  0  0  0  0
  -41.0490   16.5480  -30.7700 H   0  0  0  0  0  0  0  0  0  0  0  0
  -41.5100   15.2430  -31.7640 H   0  0  0  0  0  0  0  0  0  0  0  0
  -46.6830   18.3200  -32.4220 C   0  0  0  0  0  0  0  0  0  0  0  0
  -47.6030   17.6210  -33.2710 C   0  0  0  0  0  0  0  0  0  0  0  0
  -48.9160   18.0920  -33.4710 C   0  0  0  0  0  3  0  0  0  0  0  0
  -49.3620   19.2640  -32.8450 C   0  0  0  0  0  3  0  0  0  0  0  0
  -48.4840   19.9750  -32.0160 C   0  0  0  0  0  3  0  0  0  0  0  0
  -47.1720   19.5080  -31.8130 C   0  0  0  0  0  3  0  0  0  0  0  0
  -47.2830   16.4680  -33.9320 O   0  0  0  0  0  0  0  0  0  0  0  0
  -46.3740   16.2240  -33.7560 H   0  0  0  0  0  0  0  0  0  0  0  0
  1 40  1  0
  1  2  1  0
  2  3  2  0
  3  9  1  0
  4  6  2  0
  5  4  1  0
  5  1  2  0
  6  3  1  0
  7 12  1  0
  7 10  1  0
  8 10  2  0
  9 11  1  0
  9  7  2  0
 11  8  1  0
 13  5  1  0
 14 15  2  0
 14 16  1  0
 16 13  1  0
 17 16  1  0
 18 22  2  0
 18 21  1  0
 19 23  1  0
 19 14  1  0
 20 21  1  0
 20 24  1  0
 21 19  1  0
 24 25  1  0
 24 23  1  0
 26 25  1  0
 27 39  1  0
 27 18  1  0
 28 31  1  0
 28 27  1  0
 29 28  1  0
 30 29  2  0
 32 33  1  1
 32 29  1  0
 34 35  1  0
 34 32  1  0
 35 32  1  0
 39 37  1  6
 39 38  1  0
 39 36  1  0
 41 42  1  0
 43 44  1  0
 43 50  2  0
 44 41  2  0
 45 42  2  0
 45 51  1  0
 46 49  1  0
 47 46  1  0
 47 51  1  0
 49 40  1  0
 49 48  1  0
 50 45  1  0
 51 48  1  0
 52 58  1  0
 52 57  1  0
 53 52  1  0
 54 55  1  0
 54 53  1  0
 55 56  1  0
 56 57  1  0
 58 59  1  0
 58 44  1  0
 59 60  1  0
 61 59  1  0
 62 55  1  0
 63 62  1  0
 64 63  2  0
 65 66  2  0
 65 64  1  0
 66 67  1  0
 67 68  1  0
 67 62  2  0
 68 69  1  0
 70 68  1  0
 71 64  1  0
 71 76  1  0
 72 71  2  0
 73 72  1  0
 73 74  2  0
 74 75  1  0
 75 76  2  0
 77 78  1  0
 77 72  1  0
M  ISO  4  40 101  49 101  52 100  58 100
M  END
>  <TORSDO>  (7) 
F 15

>  <SCORE>  (7) 
-15.263

>  <name>  (7) 
6

>  <ligand_id>  (7) 
6

>  <original_smiles>  (7) 
[H]Oc1c([H])c([H])c([H])c([H])c1-c1nnc(N([H])[H])c(N2C([H])([H])C([H])([H])N(C(c3c([H])nc(N4C([H])([H])C([H])([H])C([H])(Oc5c([H])c(-c6sc([H])nc6C([H])([H])[H])c([H])c([H])c5C([H])([H])N([H])C(=O)C5([H])N(C(=O)C([H])(N([H])C(=O)C6(F)C([H])([H])C6([H])[H])C(C([H])([H])[H])(C([H])([H])[H])C([H])([H])[H])C([H])([H])C([H])(O[H])C5([H])[H])C4([H])[H])c([H])c3[H])=[N+]([H])[H])C([H])([H])C2([H])[H])c1[H]

>  <smiles>  (7) 
[H]Oc1c([H])c([H])c([H])c([H])c1-c1nnc(N([H])[H])c(N2C([H])([H])C([H])([H])N(C(c3c([H])nc(N4C([H])([H])C([H])([H])C([H])(Oc5c([H])c(-c6sc([H])nc6C([H])([H])[H])c([H])c([H])c5C([H])([H])N([H])C(=O)C5([H])N(C(=O)C([H])(N([H])C(=O)C6(F)C([H])([H])C6([H])[H])C(C([H])([H])[H])(C([H])([H])[H])C([H])([H])[H])C([H])([H])C([H])(O[H])C5([H])[H])C4([H])[H])c([H])c3[H])=[N+]([H])[H])C([H])([H])C2([H])[H])c1[H]

$$$$
7:0:0
     RDKit          3D

 75 83  0  0  1  0  0  0  0  0999 V2000
  -37.3820   13.4840  -23.6760 C   0  0  0  0  0  0  0  0  0  0  0  0
  -36.7010   13.3920  -22.4480 C   0  0  0  0  0  3  0  0  0  0  0  0
  -35.4020   12.8570  -22.3800 C   0  0  0  0  0  0  0  0  0  0  0  0
  -35.5020   12.4290  -24.7900 C   0  0  0  0  0  3  0  0  0  0  0  0
  -36.8030   12.9760  -24.8590 C   0  0  0  0  0  0  0  0  0  0  0  0
  -34.8050   12.3850  -23.5680 C   0  0  0  0  0  3  0  0  0  0  0  0
  -35.1630   12.3040  -19.8790 C   0  0  0  0  0  0  0  0  0  0  0  0
  -33.0100   12.7510  -19.3360 C   0  0  0  0  0  3  0  0  0  0  0  0
  -34.7040   12.7560  -21.1000 C   0  0  0  0  0  0  0  0  0  0  0  0
  -34.1820   12.3030  -18.8840 N   0  0  0  0  0  0  0  0  0  0  0  0
  -33.0230   13.2310  -21.0210 S   0  0  0  0  0  0  0  0  0  0  0  0
  -36.5290   11.8070  -19.5210 C   0  0  0  0  0  1  0  0  0  0  0  0
  -37.5880   13.0030  -26.1690 C   0  0  0  0  0  2  0  0  0  0  0  0
  -36.2120   13.7440  -28.0920 C   0  0  0  0  0  0  0  0  0  0  0  0
  -36.4600   14.9400  -27.9320 O   0  0  0  0  0  0  0  0  0  0  0  0
  -36.7630   12.7780  -27.3510 N   0  0  0  0  0  0  0  0  0  0  0  0
  -36.5300   11.8190  -27.5680 H   0  0  0  0  0  0  0  0  0  0  0  0
  -36.1610   14.4670  -31.1140 C   0  0  0  0  0  0  0  0  0  0  0  0
  -35.1770   13.2900  -29.1340 C   0  0  0  0  0  3  0  0  0  0  0  0
  -33.7010   14.5040  -30.6140 C   0  0  0  0  0  2  0  0  0  0  0  0
  -35.0980   14.1550  -30.3260 N   0  0  0  0  0  0  0  0  0  0  0  0
  -37.2870   14.0020  -30.8990 O   0  0  0  0  0  0  0  0  0  0  0  0
  -33.7740   13.3250  -28.5060 C   0  0  0  0  0  2  0  0  0  0  0  0
  -32.8490   13.6800  -29.6510 C   0  0  0  0  0  3  0  0  0  0  0  0
  -32.4210   12.5060  -30.3240 O   0  0  0  0  0  0  0  0  0  0  0  0
  -33.1900   12.0390  -30.6340 H   0  0  0  0  0  0  0  0  0  0  0  0
  -35.9760   15.3870  -32.3500 C   0  0  0  0  0  3  0  0  0  0  0  0
  -36.7280   14.7810  -33.4610 N   0  0  0  0  0  0  0  0  0  0  0  0
  -36.2140   14.2400  -34.5740 C   0  0  0  0  0  0  0  0  0  0  0  0
  -35.0050   14.2670  -34.8180 O   0  0  0  0  0  0  0  0  0  0  0  0
  -37.7220   14.6580  -33.3190 H   0  0  0  0  0  0  0  0  0  0  0  0
  -37.2070   13.5940  -35.5050 C   0  0  1  0  0  0  0  0  0  0  0  0
  -38.4750   13.4560  -34.9640 F   0  0  0  0  0  0  0  0  0  0  0  0
  -37.1220   13.8710  -36.9880 C   0  0  0  0  0  2  0  0  0  0  0  0
  -36.7510   12.5060  -36.4520 C   0  0  0  0  0  2  0  0  0  0  0  0
  -35.7720   17.4910  -30.8640 C   0  0  0  0  0  1  0  0  0  0  0  0
  -36.0130   17.7300  -33.3220 C   0  0  0  0  0  1  0  0  0  0  0  0
  -37.9710   17.0010  -31.9430 C   0  0  0  0  0  1  0  0  0  0  0  0
  -36.4410   16.8710  -32.1130 C   0  0  1  0  0  0  0  0  0  0  0  0
  -38.5870   14.1260  -23.7070 O   0  0  0  0  0  0  0  0  0  0  0  0
  -39.6630   16.1050  -24.4200 C   0  0  0  0  0  3  0  0  0  0  0  0
  -37.4200   16.2950  -23.4610 C   0  0  0  0  0  3  0  0  0  0  0  0
  -39.6020   17.4750  -24.6860 C   0  0  0  0  0  0  0  0  0  0  0  0
  -38.4850   18.2410  -24.3850 C   0  0  0  0  0  0  0  0  0  0  0  0
  -37.3780   17.6780  -23.7350 C   0  0  0  0  0  0  0  0  0  0  0  0
  -38.5430   15.4940  -23.8360 C   0  0  0  0  0  0  0  0  0  0  0  0
  -40.6160   18.2580  -25.4410 C   0  0  0  0  0  2  0  0  0  0  0  0
  -38.6090   19.6300  -24.9510 C   0  0  0  0  0  2  0  0  0  0  0  0
  -39.8260   19.5090  -25.9140 C   0  0  0  0  0  3  0  0  0  0  0  0
  -36.1570   18.5080  -23.3890 C   0  0  0  0  0  1  0  0  0  0  0  0
  -40.3950   19.4000  -28.3440 N   0  0  0  0  0  0  0  0  0  0  0  0
  -40.0440   19.4440  -29.7750 C   0  0  0  0  0  2  0  0  0  0  0  0
  -41.2680   19.5080  -30.7190 C   0  0  0  0  0  2  0  0  0  0  0  0
  -42.3440   18.6590  -30.2180 N   0  0  0  0  0  0  0  0  0  0  0  0
  -42.7740   18.8190  -28.8350 C   0  0  0  0  0  2  0  0  0  0  0  0
  -41.8040   19.7130  -28.0480 C   0  0  0  0  0  2  0  0  0  0  0  0
  -39.4280   19.3410  -27.4020 C   0  0  0  0  0  0  0  0  0  0  0  0
  -38.2430   19.1760  -27.7110 O   0  0  0  0  0  0  0  0  0  0  0  0
  -43.2310   18.0760  -31.1450 C   0  0  0  0  0  0  0  0  0  0  0  0
  -44.5540   18.5310  -31.3210 C   0  0  0  0  0  3  0  0  0  0  0  0
  -45.3890   17.8730  -32.2630 C   0  0  0  0  0  0  0  0  0  0  0  0
  -44.8960   16.8180  -32.9730 N   0  0  0  0  0  0  0  0  0  0  0  0
  -43.6500   16.3650  -32.8080 N   0  0  0  0  0  0  0  0  0  0  0  0
  -42.8320   16.9690  -31.9230 C   0  0  0  0  0  0  0  0  0  0  0  0
  -41.5720   16.4170  -31.7710 N   0  0  0  0  0  0  0  0  0  0  0  0
  -41.1240   16.7310  -30.9200 H   0  0  0  0  0  0  0  0  0  0  0  0
  -41.5010   15.4250  -31.9420 H   0  0  0  0  0  0  0  0  0  0  0  0
  -46.8170   18.2610  -32.5280 C   0  0  0  0  0  0  0  0  0  0  0  0
  -47.7040   17.5440  -33.3970 C   0  0  0  0  0  0  0  0  0  0  0  0
  -49.0390   17.9580  -33.5810 C   0  0  0  0  0  3  0  0  0  0  0  0
  -49.5380   19.0900  -32.9210 C   0  0  0  0  0  3  0  0  0  0  0  0
  -48.6920   19.8170  -32.0730 C   0  0  0  0  0  3  0  0  0  0  0  0
  -47.3600   19.4070  -31.8870 C   0  0  0  0  0  3  0  0  0  0  0  0
  -47.3320   16.4280  -34.0910 O   0  0  0  0  0  0  0  0  0  0  0  0
  -46.4100   16.2230  -33.9270 H   0  0  0  0  0  0  0  0  0  0  0  0
  1  2  1  0
  2  3  2  0
  3  9  1  0
  4  6  2  0
  5  4  1  0
  5  1  2  0
  6  3  1  0
  7 12  1  0
  7 10  1  0
  8 10  2  0
  9 11  1  0
  9  7  2  0
 11  8  1  0
 13  5  1  0
 14 15  2  0
 14 16  1  0
 16 13  1  0
 17 16  1  0
 18 22  2  0
 18 21  1  0
 19 23  1  0
 19 14  1  0
 20 21  1  0
 20 24  1  0
 21 19  1  0
 24 25  1  0
 24 23  1  0
 26 25  1  0
 27 39  1  0
 27 18  1  0
 28 31  1  0
 28 27  1  0
 29 28  1  0
 30 29  2  0
 32 33  1  1
 32 29  1  0
 34 35  1  0
 34 32  1  0
 35 32  1  0
 39 37  1  6
 39 38  1  0
 39 36  1  0
 40  1  1  0
 41 46  1  0
 43 41  2  0
 43 44  1  0
 44 45  2  0
 45 42  1  0
 45 50  1  0
 46 40  1  0
 46 42  2  0
 47 43  1  0
 48 44  1  0
 49 57  1  0
 49 47  1  0
 49 48  1  0
 51 56  1  0
 51 57  1  0
 52 51  1  0
 53 54  1  0
 53 52  1  0
 54 55  1  0
 55 56  1  0
 58 57  2  0
 59 54  1  0
 60 59  1  0
 61 60  2  0
 62 63  2  0
 62 61  1  0
 63 64  1  0
 64 65  1  0
 64 59  2  0
 65 66  1  0
 67 65  1  0
 68 61  1  0
 68 73  1  0
 69 68  2  0
 70 69  1  0
 70 71  2  0
 71 72  1  0
 72 73  2  0
 74 75  1  0
 74 69  1  0
M  ISO  4  40 101  46 101  51 100  57 100
M  END
>  <TORSDO>  (8) 
F 15

>  <SCORE>  (8) 
-15.328

>  <name>  (8) 
7

>  <ligand_id>  (8) 
7

>  <original_smiles>  (8) 
[H]Oc1c([H])c([H])c([H])c([H])c1-c1nnc(N([H])[H])c(N2C([H])([H])C([H])([H])N(C(=O)C3([H])C([H])([H])c4c([H])c(Oc5c([H])c(-c6sc([H])nc6C([H])([H])[H])c([H])c([H])c5C([H])([H])N([H])C(=O)C5([H])N(C(=O)C([H])(N([H])C(=O)C6(F)C([H])([H])C6([H])[H])C(C([H])([H])[H])(C([H])([H])[H])C([H])([H])[H])C([H])([H])C([H])(O[H])C5([H])[H])c([H])c(C([H])([H])[H])c4C3([H])[H])C([H])([H])C2([H])[H])c1[H]

>  <smiles>  (8) 
[H]Oc1c([H])c([H])c([H])c([H])c1-c1nnc(N([H])[H])c(N2C([H])([H])C([H])([H])N(C(=O)C3([H])C([H])([H])c4c([H])c(Oc5c([H])c(-c6sc([H])nc6C([H])([H])[H])c([H])c([H])c5C([H])([H])N([H])C(=O)C5([H])N(C(=O)C([H])(N([H])C(=O)C6(F)C([H])([H])C6([H])[H])C(C([H])([H])[H])(C([H])([H])[H])C([H])([H])[H])C([H])([H])C([H])(O[H])C5([H])[H])c([H])c(C([H])([H])[H])c4C3([H])[H])C([H])([H])C2([H])[H])c1[H]

$$$$
8:0:0
     RDKit          3D

 81 89  0  0  1  0  0  0  0  0999 V2000
  -36.6650   20.3800  -23.6480 C   0  0  0  0  0  3  0  0  0  0  0  0
  -37.5020   21.3060  -24.2890 C   0  0  0  0  0  0  0  0  0  0  0  0
  -38.7860   20.8570  -24.6390 C   0  0  0  0  0  0  0  0  0  0  0  0
  -38.3310   18.8360  -23.6700 C   0  0  0  0  0  0  0  0  0  0  0  0
  -40.0480   21.6230  -26.5960 C   0  0  0  0  0  0  0  0  0  0  0  0
  -40.2650   15.7510  -23.4420 C   0  0  0  0  0  2  0  0  0  0  0  0
  -40.1860   17.2360  -23.1030 C   0  0  0  0  0  2  0  0  0  0  0  0
  -37.9500   16.3920  -23.2930 C   0  0  0  0  0  2  0  0  0  0  0  0
  -38.8950   15.2060  -23.0210 C   0  0  0  0  0  3  0  0  0  0  0  0
  -37.0130   22.7080  -24.6230 C   0  0  0  0  0  1  0  0  0  0  0  0
  -37.0830   19.1350  -23.3540 N   0  0  0  0  0  0  0  0  0  0  0  0
  -39.1920   19.6230  -24.2950 N   0  0  0  0  0  0  0  0  0  0  0  0
  -38.7840   17.5860  -23.2880 N   0  0  0  0  0  0  0  0  0  0  0  0
  -39.6420   21.7420  -25.3230 N   0  0  0  0  0  0  0  0  0  0  0  0
  -40.8370   22.4260  -27.1090 O   0  0  0  0  0  0  0  0  0  0  0  0
  -39.9250   22.5720  -24.8310 H   0  0  0  0  0  0  0  0  0  0  0  0
  -40.2940   19.6800  -28.1620 N   0  0  0  0  0  0  0  0  0  0  0  0
  -39.9770   19.4110  -29.5710 C   0  0  0  0  0  2  0  0  0  0  0  0
  -41.2060   19.5410  -30.4820 C   0  0  0  0  0  2  0  0  0  0  0  0
  -42.2480   18.6620  -29.9770 N   0  0  0  0  0  0  0  0  0  0  0  0
  -42.7290   18.9420  -28.6340 C   0  0  0  0  0  2  0  0  0  0  0  0
  -41.6110   19.2830  -27.6260 C   0  0  0  0  0  2  0  0  0  0  0  0
  -39.4380   20.4650  -27.4630 C   0  0  0  0  0  0  0  0  0  0  0  0
  -38.2110   20.4410  -27.6220 O   0  0  0  0  0  0  0  0  0  0  0  0
  -43.1270   18.0800  -30.9160 C   0  0  0  0  0  0  0  0  0  0  0  0
  -44.4300   18.5680  -31.1580 C   0  0  0  0  0  3  0  0  0  0  0  0
  -45.2520   17.8950  -32.1020 C   0  0  0  0  0  0  0  0  0  0  0  0
  -44.7700   16.8000  -32.7560 N   0  0  0  0  0  0  0  0  0  0  0  0
  -43.5470   16.3170  -32.5260 N   0  0  0  0  0  0  0  0  0  0  0  0
  -42.7410   16.9290  -31.6390 C   0  0  0  0  0  0  0  0  0  0  0  0
  -41.5120   16.3310  -31.4200 N   0  0  0  0  0  0  0  0  0  0  0  0
  -41.0940   16.6340  -30.5510 H   0  0  0  0  0  0  0  0  0  0  0  0
  -41.4870   15.3340  -31.5710 H   0  0  0  0  0  0  0  0  0  0  0  0
  -46.6600   18.3100  -32.4300 C   0  0  0  0  0  0  0  0  0  0  0  0
  -47.5390   17.5820  -33.2980 C   0  0  0  0  0  0  0  0  0  0  0  0
  -48.8550   18.0230  -33.5460 C   0  0  0  0  0  3  0  0  0  0  0  0
  -49.3430   19.1940  -32.9480 C   0  0  0  0  0  3  0  0  0  0  0  0
  -48.5060   19.9330  -32.1020 C   0  0  0  0  0  3  0  0  0  0  0  0
  -47.1920   19.4950  -31.8530 C   0  0  0  0  0  3  0  0  0  0  0  0
  -47.1760   16.4300  -33.9370 O   0  0  0  0  0  0  0  0  0  0  0  0
  -46.2640   16.2110  -33.7380 H   0  0  0  0  0  0  0  0  0  0  0  0
  -38.5980   14.0550  -23.8090 O   0  0  0  0  0  0  0  0  0  0  0  0
  -37.3570   13.4690  -23.6840 C   0  0  0  0  0  0  0  0  0  0  0  0
  -36.6570   13.3950  -22.4540 C   0  0  0  0  0  3  0  0  0  0  0  0
  -35.3930   12.7700  -22.3680 C   0  0  0  0  0  0  0  0  0  0  0  0
  -35.5050   12.3100  -24.7670 C   0  0  0  0  0  3  0  0  0  0  0  0
  -36.7830   12.9050  -24.8450 C   0  0  0  0  0  0  0  0  0  0  0  0
  -34.8170   12.2500  -23.5450 C   0  0  0  0  0  3  0  0  0  0  0  0
  -35.1570   12.1340  -19.8780 C   0  0  0  0  0  0  0  0  0  0  0  0
  -32.9940   12.5270  -19.3290 C   0  0  0  0  0  3  0  0  0  0  0  0
  -34.6980   12.6180  -21.0880 C   0  0  0  0  0  0  0  0  0  0  0  0
  -34.1720   12.0890  -18.8870 N   0  0  0  0  0  0  0  0  0  0  0  0
  -33.0060   13.0530  -21.0000 S   0  0  0  0  0  0  0  0  0  0  0  0
  -36.5270   11.6350  -19.5340 C   0  0  0  0  0  1  0  0  0  0  0  0
  -37.5600   12.9260  -26.1620 C   0  0  0  0  0  2  0  0  0  0  0  0
  -36.1820   13.6960  -28.0740 C   0  0  0  0  0  0  0  0  0  0  0  0
  -36.4360   14.8900  -27.9030 O   0  0  0  0  0  0  0  0  0  0  0  0
  -36.7270   12.7220  -27.3400 N   0  0  0  0  0  0  0  0  0  0  0  0
  -36.4880   11.7670  -27.5700 H   0  0  0  0  0  0  0  0  0  0  0  0
  -36.1390   14.4330  -31.0950 C   0  0  0  0  0  0  0  0  0  0  0  0
  -35.1470   13.2550  -29.1210 C   0  0  0  0  0  3  0  0  0  0  0  0
  -33.6790   14.4820  -30.5960 C   0  0  0  0  0  2  0  0  0  0  0  0
  -35.0740   14.1270  -30.3080 N   0  0  0  0  0  0  0  0  0  0  0  0
  -37.2610   13.9620  -30.8780 O   0  0  0  0  0  0  0  0  0  0  0  0
  -33.7430   13.2980  -28.4930 C   0  0  0  0  0  2  0  0  0  0  0  0
  -32.8210   13.6560  -29.6400 C   0  0  0  0  0  3  0  0  0  0  0  0
  -32.3950   12.4850  -30.3180 O   0  0  0  0  0  0  0  0  0  0  0  0
  -33.1650   12.0180  -30.6280 H   0  0  0  0  0  0  0  0  0  0  0  0
  -35.9620   15.3600  -32.3260 C   0  0  0  0  0  3  0  0  0  0  0  0
  -36.7200   14.7590  -33.4360 N   0  0  0  0  0  0  0  0  0  0  0  0
  -36.2130   14.2170  -34.5520 C   0  0  0  0  0  0  0  0  0  0  0  0
  -35.0040   14.2390  -34.8000 O   0  0  0  0  0  0  0  0  0  0  0  0
  -37.7160   14.6410  -33.2920 H   0  0  0  0  0  0  0  0  0  0  0  0
  -37.2110   13.5780  -35.4810 C   0  0  1  0  0  0  0  0  0  0  0  0
  -38.4770   13.4430  -34.9360 F   0  0  0  0  0  0  0  0  0  0  0  0
  -37.1270   13.8610  -36.9620 C   0  0  0  0  0  2  0  0  0  0  0  0
  -36.7650   12.4910  -36.4350 C   0  0  0  0  0  2  0  0  0  0  0  0
  -35.7470   17.4560  -30.8290 C   0  0  0  0  0  1  0  0  0  0  0  0
  -36.0040   17.7090  -33.2860 C   0  0  0  0  0  1  0  0  0  0  0  0
  -37.9530   16.9720  -31.8950 C   0  0  0  0  0  1  0  0  0  0  0  0
  -36.4250   16.8430  -32.0790 C   0  0  1  0  0  0  0  0  0  0  0  0
  1 11  1  0
  2  1  2  0
  3 12  2  0
  3  2  1  0
  4 11  2  0
  4 13  1  0
  5 14  1  0
  6  7  1  0
  6  9  1  0
  8 13  1  0
  8  9  1  0
  9 42  1  0
 10  2  1  0
 12  4  1  0
 13  7  1  0
 14 16  1  0
 14  3  1  0
 15  5  2  0
 17 22  1  0
 17 23  1  0
 18 17  1  0
 19 20  1  0
 19 18  1  0
 20 21  1  0
 21 22  1  0
 23  5  1  0
 24 23  2  0
 25 20  1  0
 26 25  1  0
 27 26  2  0
 28 29  2  0
 28 27  1  0
 29 30  1  0
 30 31  1  0
 30 25  2  0
 31 32  1  0
 33 31  1  0
 34 27  1  0
 34 39  1  0
 35 34  2  0
 36 35  1  0
 36 37  2  0
 37 38  1  0
 38 39  2  0
 40 41  1  0
 40 35  1  0
 42 43  1  0
 43 44  1  0
 44 45  2  0
 45 51  1  0
 46 48  2  0
 47 46  1  0
 47 43  2  0
 48 45  1  0
 49 54  1  0
 49 52  1  0
 50 52  2  0
 51 53  1  0
 51 49  2  0
 53 50  1  0
 55 47  1  0
 56 57  2  0
 56 58  1  0
 58 55  1  0
 59 58  1  0
 60 64  2  0
 60 63  1  0
 61 65  1  0
 61 56  1  0
 62 63  1  0
 62 66  1  0
 63 61  1  0
 66 67  1  0
 66 65  1  0
 68 67  1  0
 69 81  1  0
 69 60  1  0
 70 73  1  0
 70 69  1  0
 71 70  1  0
 72 71  2  0
 74 75  1  1
 74 71  1  0
 76 77  1  0
 76 74  1  0
 77 74  1  0
 81 79  1  6
 81 80  1  0
 81 78  1  0
M  ISO  4   9 101  17 100  23 100  42 101
M  END
>  <TORSDO>  (9) 
F 15

>  <SCORE>  (9) 
-15.127

>  <name>  (9) 
8

>  <ligand_id>  (9) 
8

>  <original_smiles>  (9) 
[H]Oc1c([H])c([H])c([H])c([H])c1-c1nnc(N([H])[H])c(N2C([H])([H])C([H])([H])N(C(=O)C(=O)N([H])c3nc(N4C([H])([H])C([H])([H])C([H])(Oc5c([H])c(-c6sc([H])nc6C([H])([H])[H])c([H])c([H])c5C([H])([H])N([H])C(=O)C5([H])N(C(=O)C([H])(N([H])C(=O)C6(F)C([H])([H])C6([H])[H])C(C([H])([H])[H])(C([H])([H])[H])C([H])([H])[H])C([H])([H])C([H])(O[H])C5([H])[H])C4([H])[H])nc([H])c3C([H])([H])[H])C([H])([H])C2([H])[H])c1[H]

>  <smiles>  (9) 
[H]Oc1c([H])c([H])c([H])c([H])c1-c1nnc(N([H])[H])c(N2C([H])([H])C([H])([H])N(C(=O)C(=O)N([H])c3nc(N4C([H])([H])C([H])([H])C([H])(Oc5c([H])c(-c6sc([H])nc6C([H])([H])[H])c([H])c([H])c5C([H])([H])N([H])C(=O)C5([H])N(C(=O)C([H])(N([H])C(=O)C6(F)C([H])([H])C6([H])[H])C(C([H])([H])[H])(C([H])([H])[H])C([H])([H])[H])C([H])([H])C([H])(O[H])C5([H])[H])C4([H])[H])nc([H])c3C([H])([H])[H])C([H])([H])C2([H])[H])c1[H]

$$$$
9:0:0
     RDKit          3D

 79 87  0  0  1  0  0  0  0  0999 V2000
  -38.5800   14.1330  -23.7090 O   0  0  0  0  0  0  0  0  0  0  0  0
  -37.4100   17.6430  -23.3000 C   0  0  0  0  0  3  0  0  0  0  0  0
  -37.3370   16.2440  -23.3460 C   0  0  0  0  0  3  0  0  0  0  0  0
  -38.6810   18.2130  -23.4460 C   0  0  0  0  0  3  0  0  0  0  0  0
  -39.8130   17.3780  -23.4610 C   0  0  0  0  0  3  0  0  0  0  0  0
  -38.5310   15.4820  -23.4370 C   0  0  0  0  0  0  0  0  0  0  0  0
  -40.2640   17.6030  -26.4200 C   0  0  0  0  0  0  0  0  0  0  0  0
  -38.8680   19.6520  -23.9060 C   0  0  0  0  0  2  0  0  0  0  0  0
  -41.0410   17.9250  -24.1380 C   0  0  0  0  0  2  0  0  0  0  0  0
  -39.7230   19.6940  -25.2110 C   0  0  0  0  0  2  0  0  0  0  0  0
  -39.7480   16.0400  -23.4030 N   0  0  0  0  0  0  0  0  0  0  0  0
  -40.5150   18.4540  -25.3960 N   0  0  0  0  0  0  0  0  0  0  0  0
  -40.5180   16.3950  -26.4370 O   0  0  0  0  0  0  0  0  0  0  0  0
  -40.2750   19.1680  -28.3960 N   0  0  0  0  0  0  0  0  0  0  0  0
  -39.9210   19.5620  -29.7830 C   0  0  0  0  0  2  0  0  0  0  0  0
  -41.1450   19.4360  -30.7410 C   0  0  0  0  0  2  0  0  0  0  0  0
  -42.2220   18.6140  -30.1680 N   0  0  0  0  0  0  0  0  0  0  0  0
  -42.6950   18.9470  -28.8250 C   0  0  0  0  0  2  0  0  0  0  0  0
  -41.6130   19.6690  -28.0050 C   0  0  0  0  0  2  0  0  0  0  0  0
  -39.6440   18.2020  -27.6740 C   0  0  0  0  0  3  0  0  0  0  0  0
  -38.4840   17.6700  -28.0800 N   0  0  0  0  0  0  0  0  0  0  0  0
  -37.9530   18.0670  -28.8270 H   0  0  0  0  0  0  0  0  0  0  0  0
  -38.1080   16.8750  -27.5910 H   0  0  0  0  0  0  0  0  0  0  0  0
  -43.1380   18.0190  -31.0620 C   0  0  0  0  0  0  0  0  0  0  0  0
  -44.4430   18.5180  -31.2700 C   0  0  0  0  0  3  0  0  0  0  0  0
  -45.3060   17.8430  -32.1740 C   0  0  0  0  0  0  0  0  0  0  0  0
  -44.8550   16.7370  -32.8330 N   0  0  0  0  0  0  0  0  0  0  0  0
  -43.6270   16.2480  -32.6450 N   0  0  0  0  0  0  0  0  0  0  0  0
  -42.7900   16.8540  -31.7810 C   0  0  0  0  0  0  0  0  0  0  0  0
  -41.5540   16.2570  -31.6030 N   0  0  0  0  0  0  0  0  0  0  0  0
  -40.8850   16.8450  -31.1260 H   0  0  0  0  0  0  0  0  0  0  0  0
  -41.1880   15.7150  -32.3720 H   0  0  0  0  0  0  0  0  0  0  0  0
  -46.7210   18.2700  -32.4540 C   0  0  0  0  0  0  0  0  0  0  0  0
  -47.6190   17.5740  -33.3290 C   0  0  0  0  0  0  0  0  0  0  0  0
  -48.9400   18.0230  -33.5290 C   0  0  0  0  0  3  0  0  0  0  0  0
  -49.4150   19.1700  -32.8760 C   0  0  0  0  0  3  0  0  0  0  0  0
  -48.5580   19.8760  -32.0210 C   0  0  0  0  0  3  0  0  0  0  0  0
  -47.2390   19.4310  -31.8210 C   0  0  0  0  0  3  0  0  0  0  0  0
  -47.2680   16.4470  -34.0150 O   0  0  0  0  0  0  0  0  0  0  0  0
  -46.3540   16.2220  -33.8400 H   0  0  0  0  0  0  0  0  0  0  0  0
  -37.3960   13.4580  -23.6880 C   0  0  0  0  0  0  0  0  0  0  0  0
  -36.7260   13.3160  -22.4560 C   0  0  0  0  0  3  0  0  0  0  0  0
  -35.4500   12.7400  -22.3900 C   0  0  0  0  0  0  0  0  0  0  0  0
  -35.5390   12.3730  -24.8100 C   0  0  0  0  0  3  0  0  0  0  0  0
  -36.8240   12.9590  -24.8780 C   0  0  0  0  0  0  0  0  0  0  0  0
  -34.8560   12.2820  -23.5820 C   0  0  0  0  0  3  0  0  0  0  0  0
  -35.2560   12.1020  -19.9050 C   0  0  0  0  0  0  0  0  0  0  0  0
  -33.1130   12.5240  -19.3100 C   0  0  0  0  0  3  0  0  0  0  0  0
  -34.7740   12.5910  -21.1040 C   0  0  0  0  0  0  0  0  0  0  0  0
  -34.2940   12.0650  -18.8950 N   0  0  0  0  0  0  0  0  0  0  0  0
  -33.0940   13.0610  -20.9780 S   0  0  0  0  0  0  0  0  0  0  0  0
  -36.6280   11.5960  -19.5890 C   0  0  0  0  0  1  0  0  0  0  0  0
  -37.5940   13.0380  -26.1950 C   0  0  0  0  0  2  0  0  0  0  0  0
  -36.2160   13.7660  -28.1250 C   0  0  0  0  0  0  0  0  0  0  0  0
  -36.4810   14.9650  -27.9860 O   0  0  0  0  0  0  0  0  0  0  0  0
  -36.7640   12.8080  -27.3720 N   0  0  0  0  0  0  0  0  0  0  0  0
  -36.5170   11.8480  -27.5700 H   0  0  0  0  0  0  0  0  0  0  0  0
  -36.1290   14.4620  -31.1540 C   0  0  0  0  0  0  0  0  0  0  0  0
  -35.1720   13.3000  -29.1560 C   0  0  0  0  0  3  0  0  0  0  0  0
  -33.6740   14.4860  -30.6360 C   0  0  0  0  0  2  0  0  0  0  0  0
  -35.0760   14.1520  -30.3550 N   0  0  0  0  0  0  0  0  0  0  0  0
  -37.2600   14.0090  -30.9410 O   0  0  0  0  0  0  0  0  0  0  0  0
  -33.7730   13.3300  -28.5180 C   0  0  0  0  0  2  0  0  0  0  0  0
  -32.8340   13.6650  -29.6600 C   0  0  0  0  0  3  0  0  0  0  0  0
  -32.4070   12.4840  -30.3200 O   0  0  0  0  0  0  0  0  0  0  0  0
  -33.1750   12.0170  -30.6340 H   0  0  0  0  0  0  0  0  0  0  0  0
  -35.9300   15.3720  -32.3940 C   0  0  0  0  0  3  0  0  0  0  0  0
  -36.6960   14.7750  -33.5000 N   0  0  0  0  0  0  0  0  0  0  0  0
  -36.1930   14.2280  -34.6170 C   0  0  0  0  0  0  0  0  0  0  0  0
  -34.9850   14.2410  -34.8660 O   0  0  0  0  0  0  0  0  0  0  0  0
  -37.6900   14.6550  -33.3530 H   0  0  0  0  0  0  0  0  0  0  0  0
  -37.1980   13.5940  -35.5420 C   0  0  1  0  0  0  0  0  0  0  0  0
  -38.4600   13.4530  -34.9860 F   0  0  0  0  0  0  0  0  0  0  0  0
  -37.1320   13.8870  -37.0220 C   0  0  0  0  0  2  0  0  0  0  0  0
  -36.7560   12.5160  -36.5050 C   0  0  0  0  0  2  0  0  0  0  0  0
  -35.7200   17.4630  -30.8920 C   0  0  0  0  0  1  0  0  0  0  0  0
  -35.8850   17.7200  -33.3540 C   0  0  0  0  0  1  0  0  0  0  0  0
  -37.9000   17.0280  -32.0410 C   0  0  0  0  0  1  0  0  0  0  0  0
  -36.3680   16.8650  -32.1630 C   0  0  1  0  0  0  0  0  0  0  0  0
  1 41  1  0
  1  6  1  0
  3  2  2  0
  4  8  1  0
  4  2  1  0
  5  9  1  0
  5  4  1  0
  5 11  1  0
  6 11  2  0
  6  3  1  0
  7 12  1  0
 10  8  1  0
 12 10  1  0
 12  9  1  0
 13  7  2  0
 14 19  1  0
 14 20  1  0
 15 14  1  0
 16 17  1  0
 16 15  1  0
 17 18  1  0
 18 19  1  0
 20  7  1  0
 21 20  1  0
 21 23  1  0
 22 21  1  0
 24 17  1  0
 25 24  1  0
 26 25  2  0
 27 28  2  0
 27 26  1  0
 28 29  1  0
 29 30  1  0
 29 24  2  0
 30 31  1  0
 32 30  1  0
 33 26  1  0
 33 38  1  0
 34 33  2  0
 35 34  1  0
 35 36  2  0
 36 37  1  0
 37 38  2  0
 39 40  1  0
 39 34  1  0
 41 42  1  0
 42 43  2  0
 43 49  1  0
 44 46  2  0
 45 44  1  0
 45 41  2  0
 46 43  1  0
 47 52  1  0
 47 50  1  0
 48 50  2  0
 49 51  1  0
 49 47  2  0
 51 48  1  0
 53 45  1  0
 54 55  2  0
 54 56  1  0
 56 53  1  0
 57 56  1  0
 58 62  2  0
 58 61  1  0
 59 63  1  0
 59 54  1  0
 60 61  1  0
 60 64  1  0
 61 59  1  0
 64 65  1  0
 64 63  1  0
 66 65  1  0
 67 79  1  0
 67 58  1  0
 68 71  1  0
 68 67  1  0
 69 68  1  0
 70 69  2  0
 72 73  1  1
 72 69  1  0
 74 75  1  0
 74 72  1  0
 75 72  1  0
 79 77  1  6
 79 78  1  0
 79 76  1  0
M  ISO  4   1 101   6 101  14 100  20 100
M  END
>  <TORSDO>  (10) 
F 15

>  <SCORE>  (10) 
-15.225

>  <name>  (10) 
9

>  <ligand_id>  (10) 
9

>  <original_smiles>  (10) 
[H]Oc1c([H])c([H])c([H])c([H])c1-c1nnc(N([H])[H])c(N2C([H])([H])C([H])([H])N(C(C(=O)N3C([H])([H])c4nc(Oc5c([H])c(-c6sc([H])nc6C([H])([H])[H])c([H])c([H])c5C([H])([H])N([H])C(=O)C5([H])N(C(=O)C([H])(N([H])C(=O)C6(F)C([H])([H])C6([H])[H])C(C([H])([H])[H])(C([H])([H])[H])C([H])([H])[H])C([H])([H])C([H])(O[H])C5([H])[H])c([H])c([H])c4C([H])([H])C3([H])[H])=[N+]([H])[H])C([H])([H])C2([H])[H])c1[H]

>  <smiles>  (10) 
[H]Oc1c([H])c([H])c([H])c([H])c1-c1nnc(N([H])[H])c(N2C([H])([H])C([H])([H])N(C(C(=O)N3C([H])([H])c4nc(Oc5c([H])c(-c6sc([H])nc6C([H])([H])[H])c([H])c([H])c5C([H])([H])N([H])C(=O)C5([H])N(C(=O)C([H])(N([H])C(=O)C6(F)C([H])([H])C6([H])[H])C(C([H])([H])[H])(C([H])([H])[H])C([H])([H])[H])C([H])([H])C([H])(O[H])C5([H])[H])c([H])c([H])c4C([H])([H])C3([H])[H])=[N+]([H])[H])C([H])([H])C2([H])[H])c1[H]

$$$$
10:0:0
     RDKit          3D

 80 88  0  0  1  0  0  0  0  0999 V2000
  -38.5430   14.1670  -23.7580 O   0  0  0  0  0  0  0  0  0  0  0  0
  -35.3840   19.6510  -24.3890 C   0  0  0  0  0  3  0  0  0  0  0  0
  -36.0350   20.6210  -25.1700 C   0  0  0  0  0  0  0  0  0  0  0  0
  -37.4340   20.5620  -25.1800 C   0  0  0  0  0  0  0  0  0  0  0  0
  -37.3880   18.7430  -23.8130 C   0  0  0  0  0  0  0  0  0  0  0  0
  -39.8970   16.1590  -23.4400 C   0  0  0  0  0  2  0  0  0  0  0  0
  -39.5410   17.6180  -23.1470 C   0  0  0  0  0  2  0  0  0  0  0  0
  -37.5150   16.3620  -23.2270 C   0  0  0  0  0  2  0  0  0  0  0  0
  -38.6690   15.3720  -22.9900 C   0  0  0  0  0  3  0  0  0  0  0  0
  -35.2460   21.6450  -25.9650 C   0  0  0  0  0  1  0  0  0  0  0  0
  -36.0670   18.7050  -23.7220 N   0  0  0  0  0  0  0  0  0  0  0  0
  -38.0980   19.6370  -24.4760 N   0  0  0  0  0  0  0  0  0  0  0  0
  -38.0840   17.7010  -23.2200 N   0  0  0  0  0  0  0  0  0  0  0  0
  -38.1940   21.4590  -25.9350 N   0  0  0  0  0  0  0  0  0  0  0  0
  -37.6220   21.9930  -26.5750 H   0  0  0  0  0  0  0  0  0  0  0  0
  -39.3980   20.9090  -26.5680 C   0  0  0  0  0  2  0  0  0  0  0  0
  -40.0910   19.5720  -28.5600 N   0  0  0  0  0  0  0  0  0  0  0  0
  -39.9080   19.4680  -30.0150 C   0  0  0  0  0  2  0  0  0  0  0  0
  -41.2170   19.6240  -30.8010 C   0  0  0  0  0  2  0  0  0  0  0  0
  -42.2040   18.7010  -30.2790 N   0  0  0  0  0  0  0  0  0  0  0  0
  -42.4470   18.6450  -28.8450 C   0  0  0  0  0  2  0  0  0  0  0  0
  -41.4670   19.5240  -28.0330 C   0  0  0  0  0  2  0  0  0  0  0  0
  -39.0760   20.1140  -27.8500 C   0  0  0  0  0  0  0  0  0  0  0  0
  -37.9020   20.0820  -28.2460 O   0  0  0  0  0  0  0  0  0  0  0  0
  -43.1000   18.0820  -31.1710 C   0  0  0  0  0  0  0  0  0  0  0  0
  -44.4240   18.5350  -31.3240 C   0  0  0  0  0  3  0  0  0  0  0  0
  -45.2760   17.8720  -32.2470 C   0  0  0  0  0  0  0  0  0  0  0  0
  -44.7990   16.8090  -32.9570 N   0  0  0  0  0  0  0  0  0  0  0  0
  -43.5480   16.3600  -32.8150 N   0  0  0  0  0  0  0  0  0  0  0  0
  -42.7120   16.9710  -31.9520 C   0  0  0  0  0  0  0  0  0  0  0  0
  -41.4470   16.4230  -31.8250 N   0  0  0  0  0  0  0  0  0  0  0  0
  -40.9770   16.7130  -30.9780 H   0  0  0  0  0  0  0  0  0  0  0  0
  -41.3520   15.4440  -32.0500 H   0  0  0  0  0  0  0  0  0  0  0  0
  -46.7070   18.2660  -32.4940 C   0  0  0  0  0  0  0  0  0  0  0  0
  -47.6150   17.5410  -33.3340 C   0  0  0  0  0  0  0  0  0  0  0  0
  -48.9510   17.9590  -33.4970 C   0  0  0  0  0  3  0  0  0  0  0  0
  -49.4290   19.1020  -32.8390 C   0  0  0  0  0  3  0  0  0  0  0  0
  -48.5610   19.8410  -32.0250 C   0  0  0  0  0  3  0  0  0  0  0  0
  -47.2270   19.4250  -31.8590 C   0  0  0  0  0  3  0  0  0  0  0  0
  -47.2580   16.4160  -34.0240 O   0  0  0  0  0  0  0  0  0  0  0  0
  -46.3350   16.2080  -33.8720 H   0  0  0  0  0  0  0  0  0  0  0  0
  -37.3400   13.4980  -23.6570 C   0  0  0  0  0  0  0  0  0  0  0  0
  -36.6410   13.3920  -22.4290 C   0  0  0  0  0  3  0  0  0  0  0  0
  -35.3820   12.7630  -22.3510 C   0  0  0  0  0  0  0  0  0  0  0  0
  -35.5090   12.3140  -24.7520 C   0  0  0  0  0  3  0  0  0  0  0  0
  -36.7810   12.9270  -24.8240 C   0  0  0  0  0  0  0  0  0  0  0  0
  -34.8160   12.2440  -23.5310 C   0  0  0  0  0  3  0  0  0  0  0  0
  -35.1660   12.1540  -19.8570 C   0  0  0  0  0  0  0  0  0  0  0  0
  -33.0070   12.5410  -19.2940 C   0  0  0  0  0  3  0  0  0  0  0  0
  -34.6930   12.6170  -21.0690 C   0  0  0  0  0  0  0  0  0  0  0  0
  -34.1920   12.1150  -18.8550 N   0  0  0  0  0  0  0  0  0  0  0  0
  -32.9990   13.0440  -20.9730 S   0  0  0  0  0  0  0  0  0  0  0  0
  -36.5450   11.6810  -19.5150 C   0  0  0  0  0  1  0  0  0  0  0  0
  -37.5500   12.9720  -26.1460 C   0  0  0  0  0  2  0  0  0  0  0  0
  -36.1660   13.7070  -28.0700 C   0  0  0  0  0  0  0  0  0  0  0  0
  -36.4220   14.9030  -27.9180 O   0  0  0  0  0  0  0  0  0  0  0  0
  -36.7150   12.7460  -27.3230 N   0  0  0  0  0  0  0  0  0  0  0  0
  -36.4780   11.7860  -27.5310 H   0  0  0  0  0  0  0  0  0  0  0  0
  -36.1190   14.4080  -31.1000 C   0  0  0  0  0  0  0  0  0  0  0  0
  -35.1260   13.2540  -29.1120 C   0  0  0  0  0  3  0  0  0  0  0  0
  -33.6600   14.4720  -30.5990 C   0  0  0  0  0  2  0  0  0  0  0  0
  -35.0540   14.1120  -30.3100 N   0  0  0  0  0  0  0  0  0  0  0  0
  -37.2400   13.9340  -30.8820 O   0  0  0  0  0  0  0  0  0  0  0  0
  -33.7220   13.3060  -28.4850 C   0  0  0  0  0  2  0  0  0  0  0  0
  -32.7990   13.6600  -29.6340 C   0  0  0  0  0  3  0  0  0  0  0  0
  -32.3610   12.4860  -30.2990 O   0  0  0  0  0  0  0  0  0  0  0  0
  -33.1240   12.0100  -30.6110 H   0  0  0  0  0  0  0  0  0  0  0  0
  -35.9410   15.3220  -32.3420 C   0  0  0  0  0  3  0  0  0  0  0  0
  -35.7580   17.4180  -30.8390 C   0  0  0  0  0  1  0  0  0  0  0  0
  -35.9350   17.6700  -33.3020 C   0  0  0  0  0  1  0  0  0  0  0  0
  -37.9310   16.9510  -31.9760 C   0  0  0  0  0  1  0  0  0  0  0  0
  -36.4010   16.8090  -32.1090 C   0  0  1  0  0  0  0  0  0  0  0  0
  -36.7050   14.7130  -33.4440 N   0  0  0  0  0  0  0  0  0  0  0  0
  -36.2020   14.1790  -34.5660 C   0  0  0  0  0  0  0  0  0  0  0  0
  -34.9970   14.2170  -34.8280 O   0  0  0  0  0  0  0  0  0  0  0  0
  -37.6950   14.5800  -33.2880 H   0  0  0  0  0  0  0  0  0  0  0  0
  -37.2020   13.5270  -35.4840 C   0  0  1  0  0  0  0  0  0  0  0  0
  -38.4590   13.3700  -34.9220 F   0  0  0  0  0  0  0  0  0  0  0  0
  -37.1460   13.8170  -36.9650 C   0  0  0  0  0  2  0  0  0  0  0  0
  -36.7500   12.4520  -36.4480 C   0  0  0  0  0  2  0  0  0  0  0  0
  1 42  1  0
  2 11  1  0
  3  2  2  0
  4  3  1  0
  4 12  2  0
  5 11  2  0
  5 13  1  0
  6  7  1  0
  6  9  1  0
  8 13  1  0
  8  9  1  0
  9  1  1  0
 10  3  1  0
 12  5  1  0
 13  7  1  0
 14  4  1  0
 15 14  1  0
 16 14  1  0
 17 22  1  0
 17 23  1  0
 18 17  1  0
 19 20  1  0
 19 18  1  0
 20 21  1  0
 21 22  1  0
 23 16  1  0
 24 23  2  0
 25 20  1  0
 26 25  1  0
 27 26  2  0
 28 29  2  0
 28 27  1  0
 29 30  1  0
 30 31  1  0
 30 25  2  0
 31 32  1  0
 33 31  1  0
 34 27  1  0
 34 39  1  0
 35 34  2  0
 36 35  1  0
 36 37  2  0
 37 38  1  0
 38 39  2  0
 40 41  1  0
 40 35  1  0
 42 43  1  0
 43 44  2  0
 44 50  1  0
 45 47  2  0
 46 45  1  0
 46 42  2  0
 47 44  1  0
 48 53  1  0
 48 51  1  0
 49 51  2  0
 50 52  1  0
 50 48  2  0
 52 49  1  0
 54 46  1  0
 55 56  2  0
 55 57  1  0
 57 54  1  0
 58 57  1  0
 59 63  2  0
 59 62  1  0
 60 64  1  0
 60 55  1  0
 61 62  1  0
 61 65  1  0
 62 60  1  0
 65 66  1  0
 65 64  1  0
 67 66  1  0
 68 72  1  0
 68 59  1  0
 72 70  1  6
 72 71  1  0
 72 69  1  0
 73 76  1  0
 73 68  1  0
 74 73  1  0
 75 74  2  0
 77 78  1  1
 77 74  1  0
 79 80  1  0
 79 77  1  0
 80 77  1  0
M  ISO  4   1 101   9 101  17 100  23 100
M  END
>  <TORSDO>  (11) 
F 16

>  <SCORE>  (11) 
-15.189

>  <name>  (11) 
10

>  <ligand_id>  (11) 
10

>  <original_smiles>  (11) 
[H]Oc1c([H])c([H])c([H])c([H])c1-c1nnc(N([H])[H])c(N2C([H])([H])C([H])([H])N(C(=O)C([H])([H])N([H])c3nc(N4C([H])([H])C([H])([H])C([H])(Oc5c([H])c(-c6sc([H])nc6C([H])([H])[H])c([H])c([H])c5C([H])([H])N([H])C(=O)C5([H])N(C(=O)C([H])(N([H])C(=O)C6(F)C([H])([H])C6([H])[H])C(C([H])([H])[H])(C([H])([H])[H])C([H])([H])[H])C([H])([H])C([H])(O[H])C5([H])[H])C4([H])[H])nc([H])c3C([H])([H])[H])C([H])([H])C2([H])[H])c1[H]

>  <smiles>  (11) 
[H]Oc1c([H])c([H])c([H])c([H])c1-c1nnc(N([H])[H])c(N2C([H])([H])C([H])([H])N(C(=O)C([H])([H])N([H])c3nc(N4C([H])([H])C([H])([H])C([H])(Oc5c([H])c(-c6sc([H])nc6C([H])([H])[H])c([H])c([H])c5C([H])([H])N([H])C(=O)C5([H])N(C(=O)C([H])(N([H])C(=O)C6(F)C([H])([H])C6([H])[H])C(C([H])([H])[H])(C([H])([H])[H])C([H])([H])[H])C([H])([H])C([H])(O[H])C5([H])[H])C4([H])[H])nc([H])c3C([H])([H])[H])C([H])([H])C2([H])[H])c1[H]

$$$$
11:0:0
     RDKit          3D

 76 84  0  0  1  0  0  0  0  0999 V2000
  -37.3520   13.5930  -23.6910 C   0  0  0  0  0  0  0  0  0  0  0  0
  -36.6510   13.4860  -22.4710 C   0  0  0  0  0  3  0  0  0  0  0  0
  -35.3920   12.8580  -22.3940 C   0  0  0  0  0  0  0  0  0  0  0  0
  -35.5420   12.3870  -24.7890 C   0  0  0  0  0  3  0  0  0  0  0  0
  -36.8080   13.0140  -24.8610 C   0  0  0  0  0  0  0  0  0  0  0  0
  -34.8390   12.3230  -23.5730 C   0  0  0  0  0  3  0  0  0  0  0  0
  -35.1390   12.2500  -19.9080 C   0  0  0  0  0  0  0  0  0  0  0  0
  -33.0000   12.7240  -19.3420 C   0  0  0  0  0  3  0  0  0  0  0  0
  -34.6880   12.7400  -21.1180 C   0  0  0  0  0  0  0  0  0  0  0  0
  -34.1680   12.2490  -18.9060 N   0  0  0  0  0  0  0  0  0  0  0  0
  -33.0100   13.2320  -21.0230 S   0  0  0  0  0  0  0  0  0  0  0  0
  -36.4930   11.7020  -19.5830 C   0  0  0  0  0  1  0  0  0  0  0  0
  -37.5940   13.0570  -26.1650 C   0  0  0  0  0  2  0  0  0  0  0  0
  -36.2170   13.7430  -28.1020 C   0  0  0  0  0  0  0  0  0  0  0  0
  -36.4550   14.9410  -27.9480 O   0  0  0  0  0  0  0  0  0  0  0  0
  -36.7840   12.7940  -27.3530 N   0  0  0  0  0  0  0  0  0  0  0  0
  -36.5850   11.8260  -27.5650 H   0  0  0  0  0  0  0  0  0  0  0  0
  -36.1530   14.4560  -31.1300 C   0  0  0  0  0  0  0  0  0  0  0  0
  -35.1740   13.2860  -29.1380 C   0  0  0  0  0  3  0  0  0  0  0  0
  -33.6950   14.4820  -30.6380 C   0  0  0  0  0  2  0  0  0  0  0  0
  -35.0930   14.1410  -30.3400 N   0  0  0  0  0  0  0  0  0  0  0  0
  -37.2780   13.9920  -30.9190 O   0  0  0  0  0  0  0  0  0  0  0  0
  -33.7730   13.3570  -28.5060 C   0  0  0  0  0  2  0  0  0  0  0  0
  -32.8450   13.6680  -29.6650 C   0  0  0  0  0  3  0  0  0  0  0  0
  -32.4480   12.4790  -30.3270 O   0  0  0  0  0  0  0  0  0  0  0  0
  -33.2220   12.0850  -30.7150 H   0  0  0  0  0  0  0  0  0  0  0  0
  -35.9660   15.3840  -32.3620 C   0  0  0  0  0  3  0  0  0  0  0  0
  -36.7140   14.7820  -33.4780 N   0  0  0  0  0  0  0  0  0  0  0  0
  -36.1940   14.2460  -34.5920 C   0  0  0  0  0  0  0  0  0  0  0  0
  -34.9840   14.2750  -34.8320 O   0  0  0  0  0  0  0  0  0  0  0  0
  -37.7060   14.6620  -33.3390 H   0  0  0  0  0  0  0  0  0  0  0  0
  -37.1810   13.6050  -35.5300 C   0  0  1  0  0  0  0  0  0  0  0  0
  -38.4550   13.4720  -34.9990 F   0  0  0  0  0  0  0  0  0  0  0  0
  -37.0830   13.8820  -37.0110 C   0  0  0  0  0  2  0  0  0  0  0  0
  -36.7270   12.5140  -36.4750 C   0  0  0  0  0  2  0  0  0  0  0  0
  -35.8010   17.4680  -30.8430 C   0  0  0  0  0  1  0  0  0  0  0  0
  -35.9890   17.7410  -33.3030 C   0  0  0  0  0  1  0  0  0  0  0  0
  -37.9720   16.9910  -31.9850 C   0  0  0  0  0  1  0  0  0  0  0  0
  -36.4390   16.8640  -32.1170 C   0  0  1  0  0  0  0  0  0  0  0  0
  -38.5510   14.2720  -23.7200 O   0  0  0  0  0  0  0  0  0  0  0  0
  -37.4310   16.4640  -23.4490 C   0  0  0  0  0  3  0  0  0  0  0  0
  -39.5480   17.6700  -24.7940 C   0  0  0  0  0  0  0  0  0  0  0  0
  -38.4060   18.4000  -24.5160 C   0  0  0  0  0  0  0  0  0  0  0  0
  -39.6340   16.2980  -24.4890 C   0  0  0  0  0  0  0  0  0  0  0  0
  -38.5300   15.6560  -23.8690 C   0  0  0  0  0  0  0  0  0  0  0  0
  -37.3560   17.8360  -23.7830 C   0  0  0  0  0  0  0  0  0  0  0  0
  -40.5290   18.4980  -25.5680 C   0  0  0  0  0  2  0  0  0  0  0  0
  -38.4120   19.7360  -25.2140 C   0  0  0  0  0  2  0  0  0  0  0  0
  -39.6780   19.6680  -26.1270 C   0  0  0  0  0  3  0  0  0  0  0  0
  -40.8580   15.5120  -24.9020 C   0  0  0  0  0  1  0  0  0  0  0  0
  -35.9870   18.7950  -23.3550 Cl  0  0  0  0  0  0  0  0  0  0  0  0
  -40.3900   19.4190  -28.5140 N   0  0  0  0  0  0  0  0  0  0  0  0
  -40.0830   19.4060  -29.9530 C   0  0  0  0  0  2  0  0  0  0  0  0
  -41.3430   19.4360  -30.8520 C   0  0  0  0  0  2  0  0  0  0  0  0
  -42.3870   18.5750  -30.3080 N   0  0  0  0  0  0  0  0  0  0  0  0
  -42.7480   18.7290  -28.9000 C   0  0  0  0  0  2  0  0  0  0  0  0
  -41.8010   19.7390  -28.2190 C   0  0  0  0  0  2  0  0  0  0  0  0
  -39.3700   19.4350  -27.6250 C   0  0  0  0  0  0  0  0  0  0  0  0
  -38.2010   19.2870  -27.9950 O   0  0  0  0  0  0  0  0  0  0  0  0
  -43.3030   17.9970  -31.2040 C   0  0  0  0  0  0  0  0  0  0  0  0
  -44.6130   18.4910  -31.3930 C   0  0  0  0  0  3  0  0  0  0  0  0
  -45.4760   17.8310  -32.3080 C   0  0  0  0  0  0  0  0  0  0  0  0
  -45.0140   16.7550  -33.0080 N   0  0  0  0  0  0  0  0  0  0  0  0
  -43.7740   16.2780  -32.8440 N   0  0  0  0  0  0  0  0  0  0  0  0
  -42.9440   16.8630  -31.9620 C   0  0  0  0  0  0  0  0  0  0  0  0
  -41.6920   16.2920  -31.7970 N   0  0  0  0  0  0  0  0  0  0  0  0
  -41.0340   16.8690  -31.2880 H   0  0  0  0  0  0  0  0  0  0  0  0
  -41.3150   15.6590  -32.4870 H   0  0  0  0  0  0  0  0  0  0  0  0
  -46.9060   18.2350  -32.5560 C   0  0  0  0  0  0  0  0  0  0  0  0
  -47.8180   17.5230  -33.4010 C   0  0  0  0  0  0  0  0  0  0  0  0
  -49.1500   17.9550  -33.5740 C   0  0  0  0  0  3  0  0  0  0  0  0
  -49.6210   19.0990  -32.9180 C   0  0  0  0  0  3  0  0  0  0  0  0
  -48.7530   19.8190  -32.0850 C   0  0  0  0  0  3  0  0  0  0  0  0
  -47.4230   19.3940  -31.9110 C   0  0  0  0  0  3  0  0  0  0  0  0
  -47.4760   16.3940  -34.0890 O   0  0  0  0  0  0  0  0  0  0  0  0
  -46.5560   16.1740  -33.9400 H   0  0  0  0  0  0  0  0  0  0  0  0
  1  2  1  0
  2  3  2  0
  3  9  1  0
  4  6  2  0
  5  4  1  0
  5  1  2  0
  6  3  1  0
  7 12  1  0
  7 10  1  0
  8 10  2  0
  9 11  1  0
  9  7  2  0
 11  8  1  0
 13  5  1  0
 14 15  2  0
 14 16  1  0
 16 13  1  0
 17 16  1  0
 18 22  2  0
 18 21  1  0
 19 23  1  0
 19 14  1  0
 20 21  1  0
 20 24  1  0
 21 19  1  0
 24 25  1  0
 24 23  1  0
 26 25  1  0
 27 39  1  0
 27 18  1  0
 28 31  1  0
 28 27  1  0
 29 28  1  0
 30 29  2  0
 32 33  1  1
 32 29  1  0
 34 35  1  0
 34 32  1  0
 35 32  1  0
 39 37  1  6
 39 38  1  0
 39 36  1  0
 40  1  1  0
 42 43  1  0
 42 44  2  0
 43 46  2  0
 44 45  1  0
 45 40  1  0
 45 41  2  0
 46 41  1  0
 46 51  1  0
 47 42  1  0
 48 43  1  0
 49 58  1  0
 49 47  1  0
 49 48  1  0
 50 44  1  0
 52 57  1  0
 52 58  1  0
 53 52  1  0
 54 55  1  0
 54 53  1  0
 55 56  1  0
 56 57  1  0
 59 58  2  0
 60 55  1  0
 61 60  1  0
 62 61  2  0
 63 64  2  0
 63 62  1  0
 64 65  1  0
 65 66  1  0
 65 60  2  0
 66 67  1  0
 68 66  1  0
 69 62  1  0
 69 74  1  0
 70 69  2  0
 71 70  1  0
 71 72  2  0
 72 73  1  0
 73 74  2  0
 75 76  1  0
 75 70  1  0
M  ISO  4  40 101  45 101  52 100  58 100
M  END
>  <TORSDO>  (12) 
F 15

>  <SCORE>  (12) 
-15.401

>  <name>  (12) 
11

>  <ligand_id>  (12) 
11

>  <original_smiles>  (12) 
[H]Oc1c([H])c([H])c([H])c([H])c1-c1nnc(N([H])[H])c(N2C([H])([H])C([H])([H])N(C(=O)C3([H])C([H])([H])c4c(Cl)c([H])c(Oc5c([H])c(-c6sc([H])nc6C([H])([H])[H])c([H])c([H])c5C([H])([H])N([H])C(=O)C5([H])N(C(=O)C([H])(N([H])C(=O)C6(F)C([H])([H])C6([H])[H])C(C([H])([H])[H])(C([H])([H])[H])C([H])([H])[H])C([H])([H])C([H])(O[H])C5([H])[H])c(C([H])([H])[H])c4C3([H])[H])C([H])([H])C2([H])[H])c1[H]

>  <smiles>  (12) 
[H]Oc1c([H])c([H])c([H])c([H])c1-c1nnc(N([H])[H])c(N2C([H])([H])C([H])([H])N(C(=O)C3([H])C([H])([H])c4c(Cl)c([H])c(Oc5c([H])c(-c6sc([H])nc6C([H])([H])[H])c([H])c([H])c5C([H])([H])N([H])C(=O)C5([H])N(C(=O)C([H])(N([H])C(=O)C6(F)C([H])([H])C6([H])[H])C(C([H])([H])[H])(C([H])([H])[H])C([H])([H])[H])C([H])([H])C([H])(O[H])C5([H])[H])c(C([H])([H])[H])c4C3([H])[H])C([H])([H])C2([H])[H])c1[H]

$$$$
12:0:0
     RDKit          3D

 79 87  0  0  1  0  0  0  0  0999 V2000
  -38.6450   14.0650  -23.7240 O   0  0  0  0  0  0  0  0  0  0  0  0
  -40.5560   16.3450  -26.5960 C   0  0  0  0  0  3  0  0  0  0  0  0
  -39.6460   18.2080  -25.4280 C   0  0  0  0  0  3  0  0  0  0  0  0
  -39.8380   17.5460  -26.6450 C   0  0  0  0  0  0  0  0  0  0  0  0
  -40.7510   16.5400  -24.3340 C   0  0  0  0  0  0  0  0  0  0  0  0
  -39.5920   14.8830  -21.5300 C   0  0  0  0  0  2  0  0  0  0  0  0
  -40.9460   13.5200  -23.2090 C   0  0  0  0  0  2  0  0  0  0  0  0
  -40.3180   16.1780  -21.9410 C   0  0  0  0  0  2  0  0  0  0  0  0
  -41.9020   14.7290  -23.1030 C   0  0  0  0  0  2  0  0  0  0  0  0
  -39.5360   13.7790  -22.6270 C   0  0  0  0  0  3  0  0  0  0  0  0
  -41.0200   15.8550  -25.4360 N   0  0  0  0  0  0  0  0  0  0  0  0
  -40.1110   17.6990  -24.2750 N   0  0  0  0  0  0  0  0  0  0  0  0
  -41.1590   15.9880  -23.1260 N   0  0  0  0  0  0  0  0  0  0  0  0
  -40.2510   19.0670  -28.4920 N   0  0  0  0  0  0  0  0  0  0  0  0
  -40.0100   19.5880  -29.8480 C   0  0  0  0  0  2  0  0  0  0  0  0
  -41.2690   19.4540  -30.7450 C   0  0  0  0  0  2  0  0  0  0  0  0
  -42.2950   18.5870  -30.1550 N   0  0  0  0  0  0  0  0  0  0  0  0
  -42.7130   18.8730  -28.7800 C   0  0  0  0  0  2  0  0  0  0  0  0
  -41.5620   19.4700  -27.9350 C   0  0  0  0  0  2  0  0  0  0  0  0
  -39.4480   18.1400  -27.9080 C   0  0  0  0  0  3  0  0  0  0  0  0
  -38.3010   17.7350  -28.4880 N   0  0  0  0  0  0  0  0  0  0  0  0
  -37.9700   18.1630  -29.3400 H   0  0  0  0  0  0  0  0  0  0  0  0
  -37.7310   16.9950  -28.0980 H   0  0  0  0  0  0  0  0  0  0  0  0
  -43.2240   18.0040  -31.0480 C   0  0  0  0  0  0  0  0  0  0  0  0
  -44.5260   18.5090  -31.2480 C   0  0  0  0  0  3  0  0  0  0  0  0
  -45.3910   17.8470  -32.1620 C   0  0  0  0  0  0  0  0  0  0  0  0
  -44.9480   16.7410  -32.8240 N   0  0  0  0  0  0  0  0  0  0  0  0
  -43.7250   16.2400  -32.6350 N   0  0  0  0  0  0  0  0  0  0  0  0
  -42.8790   16.8450  -31.7790 C   0  0  0  0  0  0  0  0  0  0  0  0
  -41.6450   16.2450  -31.6010 N   0  0  0  0  0  0  0  0  0  0  0  0
  -41.1890   16.5530  -30.7540 H   0  0  0  0  0  0  0  0  0  0  0  0
  -41.6100   15.2490  -31.7600 H   0  0  0  0  0  0  0  0  0  0  0  0
  -46.8010   18.2870  -32.4490 C   0  0  0  0  0  0  0  0  0  0  0  0
  -47.7080   17.5970  -33.3220 C   0  0  0  0  0  0  0  0  0  0  0  0
  -49.0230   18.0610  -33.5250 C   0  0  0  0  0  3  0  0  0  0  0  0
  -49.4860   19.2150  -32.8770 C   0  0  0  0  0  3  0  0  0  0  0  0
  -48.6210   19.9180  -32.0270 C   0  0  0  0  0  3  0  0  0  0  0  0
  -47.3070   19.4580  -31.8230 C   0  0  0  0  0  3  0  0  0  0  0  0
  -47.3700   16.4620  -34.0040 O   0  0  0  0  0  0  0  0  0  0  0  0
  -46.4600   16.2260  -33.8290 H   0  0  0  0  0  0  0  0  0  0  0  0
  -37.3840   13.4990  -23.6680 C   0  0  0  0  0  0  0  0  0  0  0  0
  -36.6650   13.4060  -22.4530 C   0  0  0  0  0  3  0  0  0  0  0  0
  -35.3950   12.8100  -22.3800 C   0  0  0  0  0  0  0  0  0  0  0  0
  -35.5110   12.3890  -24.7810 C   0  0  0  0  0  3  0  0  0  0  0  0
  -36.7960   12.9800  -24.8490 C   0  0  0  0  0  0  0  0  0  0  0  0
  -34.8160   12.3120  -23.5630 C   0  0  0  0  0  3  0  0  0  0  0  0
  -35.1850   12.2000  -19.8850 C   0  0  0  0  0  0  0  0  0  0  0  0
  -33.0360   12.6220  -19.3130 C   0  0  0  0  0  3  0  0  0  0  0  0
  -34.7120   12.6700  -21.0950 C   0  0  0  0  0  0  0  0  0  0  0  0
  -34.2170   12.1750  -18.8810 N   0  0  0  0  0  0  0  0  0  0  0  0
  -33.0290   13.1290  -20.9890 S   0  0  0  0  0  0  0  0  0  0  0  0
  -36.5590   11.7050  -19.5530 C   0  0  0  0  0  1  0  0  0  0  0  0
  -37.5680   13.0020  -26.1690 C   0  0  0  0  0  2  0  0  0  0  0  0
  -36.1990   13.7210  -28.1100 C   0  0  0  0  0  0  0  0  0  0  0  0
  -36.4780   14.9170  -27.9830 O   0  0  0  0  0  0  0  0  0  0  0  0
  -36.7330   12.7640  -27.3440 N   0  0  0  0  0  0  0  0  0  0  0  0
  -36.4720   11.8060  -27.5310 H   0  0  0  0  0  0  0  0  0  0  0  0
  -36.1160   14.4310  -31.1360 C   0  0  0  0  0  0  0  0  0  0  0  0
  -35.1530   13.2630  -29.1410 C   0  0  0  0  0  3  0  0  0  0  0  0
  -33.6620   14.4680  -30.6140 C   0  0  0  0  0  2  0  0  0  0  0  0
  -35.0620   14.1220  -30.3360 N   0  0  0  0  0  0  0  0  0  0  0  0
  -37.2450   13.9690  -30.9260 O   0  0  0  0  0  0  0  0  0  0  0  0
  -33.7550   13.3030  -28.5010 C   0  0  0  0  0  2  0  0  0  0  0  0
  -32.8180   13.6460  -29.6410 C   0  0  0  0  0  3  0  0  0  0  0  0
  -32.3880   12.4690  -30.3060 O   0  0  0  0  0  0  0  0  0  0  0  0
  -33.1540   12.0030  -30.6270 H   0  0  0  0  0  0  0  0  0  0  0  0
  -35.9210   15.3480  -32.3720 C   0  0  0  0  0  3  0  0  0  0  0  0
  -36.6780   14.7510  -33.4840 N   0  0  0  0  0  0  0  0  0  0  0  0
  -36.1690   14.2250  -34.6060 C   0  0  0  0  0  0  0  0  0  0  0  0
  -34.9620   14.2610  -34.8590 O   0  0  0  0  0  0  0  0  0  0  0  0
  -37.6700   14.6200  -33.3380 H   0  0  0  0  0  0  0  0  0  0  0  0
  -37.1640   13.5850  -35.5360 C   0  0  1  0  0  0  0  0  0  0  0  0
  -38.4220   13.4130  -34.9780 F   0  0  0  0  0  0  0  0  0  0  0  0
  -37.1070   13.8970  -37.0130 C   0  0  0  0  0  2  0  0  0  0  0  0
  -36.7060   12.5260  -36.5160 C   0  0  0  0  0  2  0  0  0  0  0  0
  -35.7090   17.4400  -30.8730 C   0  0  0  0  0  1  0  0  0  0  0  0
  -35.9120   17.6970  -33.3320 C   0  0  0  0  0  1  0  0  0  0  0  0
  -37.9030   16.9800  -31.9910 C   0  0  0  0  0  1  0  0  0  0  0  0
  -36.3720   16.8360  -32.1350 C   0  0  1  0  0  0  0  0  0  0  0  0
  1 41  1  0
  2 11  1  0
  3 12  2  0
  4  2  2  0
  4  3  1  0
  5 12  1  0
  5 13  1  0
  7  9  1  0
  7 10  1  0
  8  6  1  0
 10  1  1  0
 10  6  1  0
 11  5  2  0
 13  9  1  0
 13  8  1  0
 14 19  1  0
 14 20  1  0
 15 14  1  0
 16 17  1  0
 16 15  1  0
 17 18  1  0
 18 19  1  0
 20 21  1  0
 20  4  1  0
 21 23  1  0
 22 21  1  0
 24 17  1  0
 25 24  1  0
 26 25  2  0
 27 28  2  0
 27 26  1  0
 28 29  1  0
 29 30  1  0
 29 24  2  0
 30 31  1  0
 32 30  1  0
 33 26  1  0
 33 38  1  0
 34 33  2  0
 35 34  1  0
 35 36  2  0
 36 37  1  0
 37 38  2  0
 39 40  1  0
 39 34  1  0
 41 42  1  0
 42 43  2  0
 43 49  1  0
 44 46  2  0
 45 44  1  0
 45 41  2  0
 46 43  1  0
 47 52  1  0
 47 50  1  0
 48 50  2  0
 49 51  1  0
 49 47  2  0
 51 48  1  0
 53 45  1  0
 54 55  2  0
 54 56  1  0
 56 53  1  0
 57 56  1  0
 58 62  2  0
 58 61  1  0
 59 63  1  0
 59 54  1  0
 60 61  1  0
 60 64  1  0
 61 59  1  0
 64 65  1  0
 64 63  1  0
 66 65  1  0
 67 79  1  0
 67 58  1  0
 68 71  1  0
 68 67  1  0
 69 68  1  0
 70 69  2  0
 72 73  1  1
 72 69  1  0
 74 75  1  0
 74 72  1  0
 75 72  1  0
 79 77  1  6
 79 78  1  0
 79 76  1  0
M  ISO  4   1 101  10 101  14 100  20 100
M  END
>  <TORSDO>  (13) 
F 15

>  <SCORE>  (13) 
-15.173

>  <name>  (13) 
12

>  <ligand_id>  (13) 
12

>  <original_smiles>  (13) 
[H]Oc1c([H])c([H])c([H])c([H])c1-c1nnc(N([H])[H])c(N2C([H])([H])C([H])([H])N(C(c3c([H])nc(N4C([H])([H])C([H])([H])C([H])(Oc5c([H])c(-c6sc([H])nc6C([H])([H])[H])c([H])c([H])c5C([H])([H])N([H])C(=O)C5([H])N(C(=O)C([H])(N([H])C(=O)C6(F)C([H])([H])C6([H])[H])C(C([H])([H])[H])(C([H])([H])[H])C([H])([H])[H])C([H])([H])C([H])(O[H])C5([H])[H])C([H])([H])C4([H])[H])nc3[H])=[N+]([H])[H])C([H])([H])C2([H])[H])c1[H]

>  <smiles>  (13) 
[H]Oc1c([H])c([H])c([H])c([H])c1-c1nnc(N([H])[H])c(N2C([H])([H])C([H])([H])N(C(c3c([H])nc(N4C([H])([H])C([H])([H])C([H])(Oc5c([H])c(-c6sc([H])nc6C([H])([H])[H])c([H])c([H])c5C([H])([H])N([H])C(=O)C5([H])N(C(=O)C([H])(N([H])C(=O)C6(F)C([H])([H])C6([H])[H])C(C([H])([H])[H])(C([H])([H])[H])C([H])([H])[H])C([H])([H])C([H])(O[H])C5([H])[H])C([H])([H])C4([H])[H])nc3[H])=[N+]([H])[H])C([H])([H])C2([H])[H])c1[H]

$$$$
13:0:0
     RDKit          3D

 75 83  0  0  1  0  0  0  0  0999 V2000
  -37.4460   13.4780  -23.6760 C   0  0  0  0  0  0  0  0  0  0  0  0
  -36.7220   13.4040  -22.4640 C   0  0  0  0  0  3  0  0  0  0  0  0
  -35.4520   12.7980  -22.3790 C   0  0  0  0  0  0  0  0  0  0  0  0
  -35.5690   12.3620  -24.7770 C   0  0  0  0  0  3  0  0  0  0  0  0
  -36.8600   12.9420  -24.8640 C   0  0  0  0  0  0  0  0  0  0  0  0
  -34.8760   12.2930  -23.5580 C   0  0  0  0  0  3  0  0  0  0  0  0
  -35.2340   12.1830  -19.8830 C   0  0  0  0  0  0  0  0  0  0  0  0
  -33.0700   12.5540  -19.3260 C   0  0  0  0  0  3  0  0  0  0  0  0
  -34.7620   12.6470  -21.0950 C   0  0  0  0  0  0  0  0  0  0  0  0
  -34.2570   12.1360  -18.8850 N   0  0  0  0  0  0  0  0  0  0  0  0
  -33.0630   13.0570  -21.0040 S   0  0  0  0  0  0  0  0  0  0  0  0
  -36.6140   11.7160  -19.5360 C   0  0  0  0  0  1  0  0  0  0  0  0
  -37.5710   12.9350  -26.2210 C   0  0  0  0  0  2  0  0  0  0  0  0
  -36.1870   13.7140  -28.0950 C   0  0  0  0  0  0  0  0  0  0  0  0
  -36.4480   14.9090  -27.9260 O   0  0  0  0  0  0  0  0  0  0  0  0
  -36.7130   12.7290  -27.3660 N   0  0  0  0  0  0  0  0  0  0  0  0
  -36.4570   11.7770  -27.5860 H   0  0  0  0  0  0  0  0  0  0  0  0
  -36.1510   14.4590  -31.1050 C   0  0  0  0  0  0  0  0  0  0  0  0
  -35.1600   13.2700  -29.1380 C   0  0  0  0  0  3  0  0  0  0  0  0
  -33.6880   14.4890  -30.6060 C   0  0  0  0  0  2  0  0  0  0  0  0
  -35.0860   14.1430  -30.3210 N   0  0  0  0  0  0  0  0  0  0  0  0
  -37.2770   13.9970  -30.8880 O   0  0  0  0  0  0  0  0  0  0  0  0
  -33.7610   13.3060  -28.5010 C   0  0  0  0  0  2  0  0  0  0  0  0
  -32.8370   13.6570  -29.6470 C   0  0  0  0  0  3  0  0  0  0  0  0
  -32.4230   12.4790  -30.3190 O   0  0  0  0  0  0  0  0  0  0  0  0
  -33.1970   12.0230  -30.6350 H   0  0  0  0  0  0  0  0  0  0  0  0
  -35.9650   15.3830  -32.3370 C   0  0  0  0  0  3  0  0  0  0  0  0
  -36.7200   14.7830  -33.4480 N   0  0  0  0  0  0  0  0  0  0  0  0
  -36.2060   14.2280  -34.5550 C   0  0  0  0  0  0  0  0  0  0  0  0
  -34.9950   14.2350  -34.7900 O   0  0  0  0  0  0  0  0  0  0  0  0
  -37.7170   14.6770  -33.3140 H   0  0  0  0  0  0  0  0  0  0  0  0
  -37.2030   13.5940  -35.4890 C   0  0  1  0  0  0  0  0  0  0  0  0
  -38.4770   13.4810  -34.9580 F   0  0  0  0  0  0  0  0  0  0  0  0
  -37.1010   13.8590  -36.9730 C   0  0  0  0  0  2  0  0  0  0  0  0
  -36.7590   12.4920  -36.4260 C   0  0  0  0  0  2  0  0  0  0  0  0
  -35.7560   17.4810  -30.8410 C   0  0  0  0  0  1  0  0  0  0  0  0
  -35.9920   17.7290  -33.3000 C   0  0  0  0  0  1  0  0  0  0  0  0
  -37.9540   16.9970  -31.9310 C   0  0  0  0  0  1  0  0  0  0  0  0
  -36.4250   16.8680  -32.0950 C   0  0  1  0  0  0  0  0  0  0  0  0
  -38.6830   14.0820  -23.5350 O   0  0  0  0  0  0  0  0  0  0  0  0
  -39.7250   13.9180  -24.4700 C   0  0  0  0  0  2  0  0  0  0  0  0
  -40.3830   19.1250  -28.1840 N   0  0  0  0  0  0  0  0  0  0  0  0
  -40.0200   19.5350  -29.5570 C   0  0  0  0  0  2  0  0  0  0  0  0
  -41.2170   19.4650  -30.5590 C   0  0  0  0  0  2  0  0  0  0  0  0
  -42.3200   18.6550  -30.0310 N   0  0  0  0  0  0  0  0  0  0  0  0
  -42.8130   19.0060  -28.6960 C   0  0  0  0  0  2  0  0  0  0  0  0
  -41.6990   19.6810  -27.8380 C   0  0  0  0  0  2  0  0  0  0  0  0
  -41.2750   16.0600  -26.6270 C   0  0  0  0  0  0  0  0  0  0  0  0
  -40.3490   17.7410  -27.8540 C   0  0  0  0  0  0  0  0  0  0  0  0
  -41.1900   15.7260  -23.3870 C   0  0  0  0  0  2  0  0  0  0  0  0
  -42.1300   16.4620  -24.3460 C   0  0  0  0  0  2  0  0  0  0  0  0
  -42.1060   14.2840  -25.0990 C   0  0  0  0  0  2  0  0  0  0  0  0
  -41.1100   14.2840  -23.9280 C   0  0  0  0  0  3  0  0  0  0  0  0
  -41.0240   17.3720  -26.7450 N   0  0  0  0  0  4  0  0  0  0  0  0
  -40.8030   15.1310  -27.4910 N   0  0  0  0  0  0  0  0  0  0  0  0
  -39.8050   16.8520  -28.7170 N   0  0  0  0  0  2  0  0  0  0  0  0
  -40.0240   15.5480  -28.4980 N   0  0  0  0  0  0  0  0  0  0  0  0
  -42.1350   15.6650  -25.5710 N   0  0  0  0  0  0  0  0  0  0  0  0
  -43.1810   18.0200  -30.9530 C   0  0  0  0  0  0  0  0  0  0  0  0
  -44.4960   18.4700  -31.1910 C   0  0  0  0  0  3  0  0  0  0  0  0
  -45.3100   17.7740  -32.1230 C   0  0  0  0  0  0  0  0  0  0  0  0
  -44.8070   16.6820  -32.7670 N   0  0  0  0  0  0  0  0  0  0  0  0
  -43.5700   16.2310  -32.5430 N   0  0  0  0  0  0  0  0  0  0  0  0
  -42.7710   16.8710  -31.6670 C   0  0  0  0  0  0  0  0  0  0  0  0
  -41.5230   16.3100  -31.4590 N   0  0  0  0  0  0  0  0  0  0  0  0
  -41.0730   16.6270  -30.6110 H   0  0  0  0  0  0  0  0  0  0  0  0
  -41.4370   15.3200  -31.6400 H   0  0  0  0  0  0  0  0  0  0  0  0
  -46.7250   18.1630  -32.4470 C   0  0  0  0  0  0  0  0  0  0  0  0
  -47.5900   17.4260  -33.3200 C   0  0  0  0  0  0  0  0  0  0  0  0
  -48.9160   17.8420  -33.5600 C   0  0  0  0  0  3  0  0  0  0  0  0
  -49.4260   18.9970  -32.9500 C   0  0  0  0  0  3  0  0  0  0  0  0
  -48.6020   19.7460  -32.1010 C   0  0  0  0  0  3  0  0  0  0  0  0
  -47.2780   19.3340  -31.8600 C   0  0  0  0  0  3  0  0  0  0  0  0
  -47.2040   16.2860  -33.9670 O   0  0  0  0  0  0  0  0  0  0  0  0
  -46.2910   16.0800  -33.7680 H   0  0  0  0  0  0  0  0  0  0  0  0
  1 40  1  0
  1  2  1  0
  2  3  2  0
  3  9  1  0
  4  6  2  0
  5  4  1  0
  5  1  2  0
  6  3  1  0
  7 12  1  0
  7 10  1  0
  8 10  2  0
  9 11  1  0
  9  7  2  0
 11  8  1  0
 13  5  1  0
 14 15  2  0
 14 16  1  0
 16 13  1  0
 17 16  1  0
 18 22  2  0
 18 21  1  0
 19 23  1  0
 19 14  1  0
 20 21  1  0
 20 24  1  0
 21 19  1  0
 24 25  1  0
 24 23  1  0
 26 25  1  0
 27 39  1  0
 27 18  1  0
 28 31  1  0
 28 27  1  0
 29 28  1  0
 30 29  2  0
 32 33  1  1
 32 29  1  0
 34 35  1  0
 34 32  1  0
 35 32  1  0
 39 37  1  6
 39 38  1  0
 39 36  1  0
 41 40  1  0
 42 49  1  0
 42 47  1  0
 43 42  1  0
 44 45  1  0
 44 43  1  0
 45 46  1  0
 46 47  1  0
 48 58  1  0
 49 54  2  0
 51 50  1  0
 52 53  1  0
 53 41  1  0
 53 50  1  0
 54 48  2  0
 55 48  1  0
 56 57  1  0
 56 49  1  0
 57 55  2  0
 58 52  1  0
 58 51  1  0
 59 45  1  0
 60 59  1  0
 61 60  2  0
 62 63  2  0
 62 61  1  0
 63 64  1  0
 64 65  1  0
 64 59  2  0
 65 66  1  0
 67 65  1  0
 68 61  1  0
 68 73  1  0
 69 68  2  0
 70 69  1  0
 70 71  2  0
 71 72  1  0
 72 73  2  0
 74 75  1  0
 74 69  1  0
M  ISO  4  40 101  41 101  42 100  49 100
M  END
>  <TORSDO>  (14) 
F 15

>  <SCORE>  (14) 
-15.061

>  <name>  (14) 
13

>  <ligand_id>  (14) 
13

>  <original_smiles>  (14) 
[H]Oc1c([H])c([H])c([H])c([H])c1-c1nnc(N([H])[H])c(N2C([H])([H])C([H])([H])N(c3nnnc(N4C([H])([H])C([H])([H])C([H])(C([H])([H])Oc5c([H])c(-c6sc([H])nc6C([H])([H])[H])c([H])c([H])c5C([H])([H])N([H])C(=O)C5([H])N(C(=O)C([H])(N([H])C(=O)C6(F)C([H])([H])C6([H])[H])C(C([H])([H])[H])(C([H])([H])[H])C([H])([H])[H])C([H])([H])C([H])(O[H])C5([H])[H])C4([H])[H])n3)C([H])([H])C2([H])[H])c1[H]

>  <smiles>  (14) 
[H]Oc1c([H])c([H])c([H])c([H])c1-c1nnc(N([H])[H])c(N2C([H])([H])C([H])([H])N(c3nnnc(N4C([H])([H])C([H])([H])C([H])(C([H])([H])Oc5c([H])c(-c6sc([H])nc6C([H])([H])[H])c([H])c([H])c5C([H])([H])N([H])C(=O)C5([H])N(C(=O)C([H])(N([H])C(=O)C6(F)C([H])([H])C6([H])[H])C(C([H])([H])[H])(C([H])([H])[H])C([H])([H])[H])C([H])([H])C([H])(O[H])C5([H])[H])C4([H])[H])n3)C([H])([H])C2([H])[H])c1[H]

$$$$
14:0:0
     RDKit          3D

 76 83  0  0  1  0  0  0  0  0999 V2000
  -37.3770   13.4750  -23.6940 C   0  0  0  0  0  0  0  0  0  0  0  0
  -36.6760   13.4030  -22.4690 C   0  0  0  0  0  3  0  0  0  0  0  0
  -35.4090   12.7890  -22.3900 C   0  0  0  0  0  0  0  0  0  0  0  0
  -35.5300   12.3280  -24.7910 C   0  0  0  0  0  3  0  0  0  0  0  0
  -36.8090   12.9250  -24.8640 C   0  0  0  0  0  0  0  0  0  0  0  0
  -34.8390   12.2660  -23.5680 C   0  0  0  0  0  3  0  0  0  0  0  0
  -35.1850   12.2020  -19.8900 C   0  0  0  0  0  0  0  0  0  0  0  0
  -33.0170   12.5690  -19.3460 C   0  0  0  0  0  3  0  0  0  0  0  0
  -34.7140   12.6490  -21.1090 C   0  0  0  0  0  0  0  0  0  0  0  0
  -34.2050   12.1600  -18.8960 N   0  0  0  0  0  0  0  0  0  0  0  0
  -33.0150   13.0550  -21.0290 S   0  0  0  0  0  0  0  0  0  0  0  0
  -36.5680   11.7460  -19.5370 C   0  0  0  0  0  1  0  0  0  0  0  0
  -37.5930   12.9530  -26.1750 C   0  0  0  0  0  2  0  0  0  0  0  0
  -36.2200   13.7110  -28.0940 C   0  0  0  0  0  0  0  0  0  0  0  0
  -36.4700   14.9060  -27.9280 O   0  0  0  0  0  0  0  0  0  0  0  0
  -36.7670   12.7400  -27.3580 N   0  0  0  0  0  0  0  0  0  0  0  0
  -36.5310   11.7830  -27.5820 H   0  0  0  0  0  0  0  0  0  0  0  0
  -36.1760   14.4450  -31.1150 C   0  0  0  0  0  0  0  0  0  0  0  0
  -35.1850   13.2630  -29.1410 C   0  0  0  0  0  3  0  0  0  0  0  0
  -33.7160   14.4870  -30.6200 C   0  0  0  0  0  2  0  0  0  0  0  0
  -35.1110   14.1340  -30.3300 N   0  0  0  0  0  0  0  0  0  0  0  0
  -37.3000   13.9790  -30.8970 O   0  0  0  0  0  0  0  0  0  0  0  0
  -33.7810   13.3000  -28.5160 C   0  0  0  0  0  2  0  0  0  0  0  0
  -32.8590   13.6600  -29.6640 C   0  0  0  0  0  3  0  0  0  0  0  0
  -32.4320   12.4890  -30.3410 O   0  0  0  0  0  0  0  0  0  0  0  0
  -33.2010   12.0240  -30.6530 H   0  0  0  0  0  0  0  0  0  0  0  0
  -35.9950   15.3710  -32.3470 C   0  0  0  0  0  3  0  0  0  0  0  0
  -36.7440   14.7640  -33.4610 N   0  0  0  0  0  0  0  0  0  0  0  0
  -36.2280   14.2300  -34.5770 C   0  0  0  0  0  0  0  0  0  0  0  0
  -35.0190   14.2630  -34.8200 O   0  0  0  0  0  0  0  0  0  0  0  0
  -37.7380   14.6370  -33.3220 H   0  0  0  0  0  0  0  0  0  0  0  0
  -37.2170   13.5840  -35.5100 C   0  0  1  0  0  0  0  0  0  0  0  0
  -38.4850   13.4400  -34.9700 F   0  0  0  0  0  0  0  0  0  0  0  0
  -37.1330   13.8650  -36.9920 C   0  0  0  0  0  2  0  0  0  0  0  0
  -36.7570   12.5000  -36.4600 C   0  0  0  0  0  2  0  0  0  0  0  0
  -35.8090   17.4700  -30.8490 C   0  0  0  0  0  1  0  0  0  0  0  0
  -36.0370   17.7180  -33.3090 C   0  0  0  0  0  1  0  0  0  0  0  0
  -37.9980   16.9720  -31.9440 C   0  0  0  0  0  1  0  0  0  0  0  0
  -36.4670   16.8500  -32.1060 C   0  0  1  0  0  0  0  0  0  0  0  0
  -38.6320   14.0280  -23.7370 O   0  0  0  0  0  0  0  0  0  0  0  0
  -38.8900   18.0970  -23.2730 C   0  0  0  0  0  3  0  0  0  0  0  0
  -39.0160   15.9090  -22.2540 C   0  0  0  0  0  3  0  0  0  0  0  0
  -39.0910   17.3070  -22.1240 C   0  0  0  0  0  0  0  0  0  0  0  0
  -38.6280   17.4660  -24.5090 C   0  0  0  0  0  0  0  0  0  0  0  0
  -38.7230   15.3740  -23.5190 C   0  0  0  0  0  0  0  0  0  0  0  0
  -39.1290   19.2200  -26.1570 C   0  0  0  0  0  0  0  0  0  0  0  0
  -39.3760   17.9400  -20.7770 C   0  0  0  0  0  1  0  0  0  0  0  0
  -38.5350   16.1290  -24.6130 N   0  0  0  0  0  0  0  0  0  0  0  0
  -38.4160   18.1960  -25.6820 N   0  0  0  0  0  0  0  0  0  0  0  0
  -39.7690   20.0480  -25.4950 O   0  0  0  0  0  0  0  0  0  0  0  0
  -37.9090   17.7090  -26.4060 H   0  0  0  0  0  0  0  0  0  0  0  0
  -40.1000   19.3260  -28.4700 N   0  0  0  0  0  0  0  0  0  0  0  0
  -39.8920   19.4190  -29.9260 C   0  0  0  0  0  2  0  0  0  0  0  0
  -41.1780   19.4900  -30.7650 C   0  0  0  0  0  2  0  0  0  0  0  0
  -42.1900   18.6090  -30.2060 N   0  0  0  0  0  0  0  0  0  0  0  0
  -42.5760   18.8240  -28.8200 C   0  0  0  0  0  2  0  0  0  0  0  0
  -41.4840   19.5420  -27.9920 C   0  0  0  0  0  2  0  0  0  0  0  0
  -38.9850   19.3190  -27.6950 C   0  0  0  0  0  0  0  0  0  0  0  0
  -37.8370   19.3150  -28.1600 O   0  0  0  0  0  0  0  0  0  0  0  0
  -43.1170   18.0230  -31.0950 C   0  0  0  0  0  0  0  0  0  0  0  0
  -44.4190   18.5300  -31.2890 C   0  0  0  0  0  3  0  0  0  0  0  0
  -45.2930   17.8610  -32.1910 C   0  0  0  0  0  0  0  0  0  0  0  0
  -44.8550   16.7500  -32.8490 N   0  0  0  0  0  0  0  0  0  0  0  0
  -43.6290   16.2500  -32.6680 N   0  0  0  0  0  0  0  0  0  0  0  0
  -42.7770   16.8620  -31.8210 C   0  0  0  0  0  0  0  0  0  0  0  0
  -41.5410   16.2640  -31.6510 N   0  0  0  0  0  0  0  0  0  0  0  0
  -41.0740   16.6020  -30.8200 H   0  0  0  0  0  0  0  0  0  0  0  0
  -41.5160   15.2610  -31.7670 H   0  0  0  0  0  0  0  0  0  0  0  0
  -46.7050   18.2980  -32.4690 C   0  0  0  0  0  0  0  0  0  0  0  0
  -47.6200   17.5980  -33.3230 C   0  0  0  0  0  0  0  0  0  0  0  0
  -48.9370   18.0580  -33.5190 C   0  0  0  0  0  3  0  0  0  0  0  0
  -49.3930   19.2220  -32.8830 C   0  0  0  0  0  3  0  0  0  0  0  0
  -48.5200   19.9340  -32.0490 C   0  0  0  0  0  3  0  0  0  0  0  0
  -47.2030   19.4780  -31.8530 C   0  0  0  0  0  3  0  0  0  0  0  0
  -47.2900   16.4540  -33.9930 O   0  0  0  0  0  0  0  0  0  0  0  0
  -46.3770   16.2180  -33.8240 H   0  0  0  0  0  0  0  0  0  0  0  0
  1  2  1  0
  2  3  2  0
  3  9  1  0
  4  6  2  0
  5  4  1  0
  5  1  2  0
  6  3  1  0
  7 12  1  0
  7 10  1  0
  8 10  2  0
  9 11  1  0
  9  7  2  0
 11  8  1  0
 13  5  1  0
 14 15  2  0
 14 16  1  0
 16 13  1  0
 17 16  1  0
 18 22  2  0
 18 21  1  0
 19 23  1  0
 19 14  1  0
 20 21  1  0
 20 24  1  0
 21 19  1  0
 24 25  1  0
 24 23  1  0
 26 25  1  0
 27 39  1  0
 27 18  1  0
 28 31  1  0
 28 27  1  0
 29 28  1  0
 30 29  2  0
 32 33  1  1
 32 29  1  0
 34 35  1  0
 34 32  1  0
 35 32  1  0
 39 37  1  6
 39 38  1  0
 39 36  1  0
 40  1  1  0
 40 45  1  0
 41 43  1  0
 42 43  2  0
 43 47  1  0
 44 41  2  0
 45 42  1  0
 46 49  1  0
 46 50  2  0
 48 44  1  0
 48 45  2  0
 49 44  1  0
 51 49  1  0
 52 57  1  0
 52 58  1  0
 53 52  1  0
 54 55  1  0
 54 53  1  0
 55 56  1  0
 56 57  1  0
 58 46  1  0
 59 58  2  0
 60 55  1  0
 61 60  1  0
 62 61  2  0
 63 64  2  0
 63 62  1  0
 64 65  1  0
 65 66  1  0
 65 60  2  0
 66 67  1  0
 68 66  1  0
 69 62  1  0
 69 74  1  0
 70 69  2  0
 71 70  1  0
 71 72  2  0
 72 73  1  0
 73 74  2  0
 75 76  1  0
 75 70  1  0
M  ISO  4  40 101  45 101  52 100  58 100
M  END
>  <TORSDO>  (15) 
F 15

>  <SCORE>  (15) 
-14.983

>  <name>  (15) 
14

>  <ligand_id>  (15) 
14

>  <original_smiles>  (15) 
[H]Oc1c([H])c([H])c([H])c([H])c1-c1nnc(N([H])[H])c(N2C([H])([H])C([H])([H])N(C(=O)C(=O)N([H])c3nc(Oc4c([H])c(-c5sc([H])nc5C([H])([H])[H])c([H])c([H])c4C([H])([H])N([H])C(=O)C4([H])N(C(=O)C([H])(N([H])C(=O)C5(F)C([H])([H])C5([H])[H])C(C([H])([H])[H])(C([H])([H])[H])C([H])([H])[H])C([H])([H])C([H])(O[H])C4([H])[H])c([H])c(C([H])([H])[H])c3[H])C([H])([H])C2([H])[H])c1[H]

>  <smiles>  (15) 
[H]Oc1c([H])c([H])c([H])c([H])c1-c1nnc(N([H])[H])c(N2C([H])([H])C([H])([H])N(C(=O)C(=O)N([H])c3nc(Oc4c([H])c(-c5sc([H])nc5C([H])([H])[H])c([H])c([H])c4C([H])([H])N([H])C(=O)C4([H])N(C(=O)C([H])(N([H])C(=O)C5(F)C([H])([H])C5([H])[H])C(C([H])([H])[H])(C([H])([H])[H])C([H])([H])[H])C([H])([H])C([H])(O[H])C4([H])[H])c([H])c(C([H])([H])[H])c3[H])C([H])([H])C2([H])[H])c1[H]

$$$$
15:0:0
     RDKit          3D

 77 85  0  0  1  0  0  0  0  0999 V2000
  -37.3650   13.5360  -23.6820 C   0  0  0  0  0  0  0  0  0  0  0  0
  -36.6500   13.4200  -22.4620 C   0  0  0  0  0  3  0  0  0  0  0  0
  -35.4190   12.7440  -22.3760 C   0  0  0  0  0  0  0  0  0  0  0  0
  -35.5720   12.2740  -24.7680 C   0  0  0  0  0  3  0  0  0  0  0  0
  -36.8240   12.9290  -24.8450 C   0  0  0  0  0  0  0  0  0  0  0  0
  -34.8760   12.1890  -23.5490 C   0  0  0  0  0  3  0  0  0  0  0  0
  -35.2350   12.1650  -19.8710 C   0  0  0  0  0  0  0  0  0  0  0  0
  -33.0720   12.4980  -19.3070 C   0  0  0  0  0  3  0  0  0  0  0  0
  -34.7400   12.5920  -21.0880 C   0  0  0  0  0  0  0  0  0  0  0  0
  -34.2690   12.1130  -18.8670 N   0  0  0  0  0  0  0  0  0  0  0  0
  -33.0350   12.9690  -20.9920 S   0  0  0  0  0  0  0  0  0  0  0  0
  -36.6280   11.7410  -19.5250 C   0  0  0  0  0  1  0  0  0  0  0  0
  -37.5950   12.9650  -26.1650 C   0  0  0  0  0  2  0  0  0  0  0  0
  -36.1920   13.7150  -28.0730 C   0  0  0  0  0  0  0  0  0  0  0  0
  -36.4350   14.9130  -27.9090 O   0  0  0  0  0  0  0  0  0  0  0  0
  -36.7590   12.7510  -27.3420 N   0  0  0  0  0  0  0  0  0  0  0  0
  -36.5490   11.7900  -27.5750 H   0  0  0  0  0  0  0  0  0  0  0  0
  -36.1230   14.4360  -31.0960 C   0  0  0  0  0  0  0  0  0  0  0  0
  -35.1490   13.2600  -29.1090 C   0  0  0  0  0  3  0  0  0  0  0  0
  -33.6680   14.4790  -30.5820 C   0  0  0  0  0  2  0  0  0  0  0  0
  -35.0660   14.1270  -30.3000 N   0  0  0  0  0  0  0  0  0  0  0  0
  -37.2490   13.9710  -30.8870 O   0  0  0  0  0  0  0  0  0  0  0  0
  -33.7490   13.3000  -28.4710 C   0  0  0  0  0  2  0  0  0  0  0  0
  -32.8190   13.6540  -29.6140 C   0  0  0  0  0  3  0  0  0  0  0  0
  -32.3940   12.4800  -30.2860 O   0  0  0  0  0  0  0  0  0  0  0  0
  -33.1670   12.0280  -30.6090 H   0  0  0  0  0  0  0  0  0  0  0  0
  -35.9340   15.3600  -32.3280 C   0  0  0  0  0  3  0  0  0  0  0  0
  -36.6850   14.7620  -33.4450 N   0  0  0  0  0  0  0  0  0  0  0  0
  -36.1680   14.2190  -34.5570 C   0  0  0  0  0  0  0  0  0  0  0  0
  -34.9570   14.2440  -34.7950 O   0  0  0  0  0  0  0  0  0  0  0  0
  -37.6790   14.6440  -33.3090 H   0  0  0  0  0  0  0  0  0  0  0  0
  -37.1580   13.5800  -35.4930 C   0  0  1  0  0  0  0  0  0  0  0  0
  -38.4310   13.4470  -34.9580 F   0  0  0  0  0  0  0  0  0  0  0  0
  -37.0670   13.8580  -36.9770 C   0  0  0  0  0  2  0  0  0  0  0  0
  -36.7040   12.4920  -36.4420 C   0  0  0  0  0  2  0  0  0  0  0  0
  -35.7230   17.4620  -30.8360 C   0  0  0  0  0  1  0  0  0  0  0  0
  -35.9740   17.7050  -33.2910 C   0  0  0  0  0  1  0  0  0  0  0  0
  -37.9300   16.9760  -31.9160 C   0  0  0  0  0  1  0  0  0  0  0  0
  -36.4000   16.8450  -32.0840 C   0  0  1  0  0  0  0  0  0  0  0  0
  -38.5650   14.2160  -23.7720 O   0  0  0  0  0  0  0  0  0  0  0  0
  -40.1550   15.9280  -22.9910 C   0  0  0  0  0  2  0  0  0  0  0  0
  -40.0720   17.2800  -23.6960 C   0  0  0  0  0  2  0  0  0  0  0  0
  -37.8320   16.5360  -23.4540 C   0  0  0  0  0  2  0  0  0  0  0  0
  -38.7150   15.3810  -22.9350 C   0  0  0  0  0  3  0  0  0  0  0  0
  -38.7450   17.2910  -24.2780 N   0  0  0  0  0  0  0  0  0  0  0  0
  -40.0720   19.1650  -28.5000 N   0  0  0  0  0  0  0  0  0  0  0  0
  -39.7770   19.5350  -29.8770 C   0  0  0  0  0  2  0  0  0  0  0  0
  -41.0280   19.4050  -30.7950 C   0  0  0  0  0  2  0  0  0  0  0  0
  -42.1130   18.6210  -30.1860 N   0  0  0  0  0  0  0  0  0  0  0  0
  -42.5090   18.9140  -28.8060 C   0  0  0  0  0  2  0  0  0  0  0  0
  -41.3780   19.5810  -27.9970 C   0  0  0  0  0  2  0  0  0  0  0  0
  -37.2720   20.0330  -26.3500 C   0  0  0  0  0  2  0  0  0  0  0  0
  -39.1750   18.0220  -26.5520 C   0  0  0  0  0  0  0  0  0  0  0  0
  -38.4200   18.1350  -25.3560 C   0  0  0  0  0  0  0  0  0  0  0  0
  -37.4370   19.1530  -25.2640 C   0  0  0  0  0  0  0  0  0  0  0  0
  -39.0740   19.0330  -27.5260 C   0  0  0  0  0  0  0  0  0  0  0  0
  -40.0450   16.7990  -26.8290 C   0  0  0  0  0  1  0  0  0  0  0  0
  -38.0980   19.9600  -27.4250 N   0  0  0  0  0  0  0  0  0  0  0  0
  -36.4710   19.3830  -23.8470 Cl  0  0  0  0  0  0  0  0  0  0  0  0
  -37.9990   20.6620  -28.1610 H   0  0  0  0  0  0  0  0  0  0  0  0
  -43.0520   18.0230  -31.0530 C   0  0  0  0  0  0  0  0  0  0  0  0
  -44.3570   18.5320  -31.2380 C   0  0  0  0  0  3  0  0  0  0  0  0
  -45.2430   17.8550  -32.1230 C   0  0  0  0  0  0  0  0  0  0  0  0
  -44.8140   16.7400  -32.7780 N   0  0  0  0  0  0  0  0  0  0  0  0
  -43.5910   16.2320  -32.5990 N   0  0  0  0  0  0  0  0  0  0  0  0
  -42.7290   16.8460  -31.7660 C   0  0  0  0  0  0  0  0  0  0  0  0
  -41.5010   16.2320  -31.5960 N   0  0  0  0  0  0  0  0  0  0  0  0
  -41.0300   16.5350  -30.7560 H   0  0  0  0  0  0  0  0  0  0  0  0
  -41.4920   15.2310  -31.7370 H   0  0  0  0  0  0  0  0  0  0  0  0
  -46.6550   18.2990  -32.3950 C   0  0  0  0  0  0  0  0  0  0  0  0
  -47.5810   17.5890  -33.2250 C   0  0  0  0  0  0  0  0  0  0  0  0
  -48.8990   18.0490  -33.4160 C   0  0  0  0  0  3  0  0  0  0  0  0
  -49.3490   19.2230  -32.7960 C   0  0  0  0  0  3  0  0  0  0  0  0
  -48.4630   19.9490  -31.9870 C   0  0  0  0  0  3  0  0  0  0  0  0
  -47.1440   19.4920  -31.7970 C   0  0  0  0  0  3  0  0  0  0  0  0
  -47.2590   16.4310  -33.8760 O   0  0  0  0  0  0  0  0  0  0  0  0
  -46.3450   16.2100  -33.6990 H   0  0  0  0  0  0  0  0  0  0  0  0
  1  2  1  0
  2  3  2  0
  3  9  1  0
  4  6  2  0
  5  4  1  0
  5  1  2  0
  6  3  1  0
  7 12  1  0
  7 10  1  0
  8 10  2  0
  9 11  1  0
  9  7  2  0
 11  8  1  0
 13  5  1  0
 14 15  2  0
 14 16  1  0
 16 13  1  0
 17 16  1  0
 18 22  2  0
 18 21  1  0
 19 23  1  0
 19 14  1  0
 20 21  1  0
 20 24  1  0
 21 19  1  0
 24 25  1  0
 24 23  1  0
 26 25  1  0
 27 39  1  0
 27 18  1  0
 28 31  1  0
 28 27  1  0
 29 28  1  0
 30 29  2  0
 32 33  1  1
 32 29  1  0
 34 35  1  0
 34 32  1  0
 35 32  1  0
 39 37  1  6
 39 38  1  0
 39 36  1  0
 40  1  1  0
 41 44  1  0
 42 41  1  0
 43 44  1  0
 44 40  1  0
 45 42  1  0
 45 43  1  0
 46 51  1  0
 46 56  1  0
 47 46  1  0
 48 49  1  0
 48 47  1  0
 49 50  1  0
 50 51  1  0
 52 55  1  0
 53 54  1  0
 54 55  2  0
 54 45  1  0
 55 59  1  0
 56 58  1  0
 56 53  2  0
 57 53  1  0
 58 52  1  0
 60 58  1  0
 61 49  1  0
 62 61  1  0
 63 62  2  0
 64 65  2  0
 64 63  1  0
 65 66  1  0
 66 67  1  0
 66 61  2  0
 67 68  1  0
 69 67  1  0
 70 63  1  0
 70 75  1  0
 71 70  2  0
 72 71  1  0
 72 73  2  0
 73 74  1  0
 74 75  2  0
 76 77  1  0
 76 71  1  0
M  ISO  4  40 101  44 101  46 100  56 100
M  END
>  <TORSDO>  (16) 
F 15

>  <SCORE>  (16) 
-15.023

>  <name>  (16) 
15

>  <ligand_id>  (16) 
15

>  <original_smiles>  (16) 
[H]Oc1c([H])c([H])c([H])c([H])c1-c1nnc(N([H])[H])c(N2C([H])([H])C([H])([H])N(c3c(C([H])([H])[H])c(N4C([H])([H])C([H])([H])C([H])(Oc5c([H])c(-c6sc([H])nc6C([H])([H])[H])c([H])c([H])c5C([H])([H])N([H])C(=O)C5([H])N(C(=O)C([H])(N([H])C(=O)C6(F)C([H])([H])C6([H])[H])C(C([H])([H])[H])(C([H])([H])[H])C([H])([H])[H])C([H])([H])C([H])(O[H])C5([H])[H])C4([H])[H])c(Cl)c([H])[n+]3[H])C([H])([H])C2([H])[H])c1[H]

>  <smiles>  (16) 
[H]Oc1c([H])c([H])c([H])c([H])c1-c1nnc(N([H])[H])c(N2C([H])([H])C([H])([H])N(c3c(C([H])([H])[H])c(N4C([H])([H])C([H])([H])C([H])(Oc5c([H])c(-c6sc([H])nc6C([H])([H])[H])c([H])c([H])c5C([H])([H])N([H])C(=O)C5([H])N(C(=O)C([H])(N([H])C(=O)C6(F)C([H])([H])C6([H])[H])C(C([H])([H])[H])(C([H])([H])[H])C([H])([H])[H])C([H])([H])C([H])(O[H])C5([H])[H])C4([H])[H])c(Cl)c([H])[n+]3[H])C([H])([H])C2([H])[H])c1[H]

$$$$
16:0:0
     RDKit          3D

 77 84  0  0  1  0  0  0  0  0999 V2000
  -37.3780   13.4910  -23.6940 C   0  0  0  0  0  0  0  0  0  0  0  0
  -36.6960   13.4350  -22.4570 C   0  0  0  0  0  3  0  0  0  0  0  0
  -35.4250   12.8230  -22.3600 C   0  0  0  0  0  0  0  0  0  0  0  0
  -35.5150   12.3420  -24.7600 C   0  0  0  0  0  3  0  0  0  0  0  0
  -36.8000   12.9190  -24.8480 C   0  0  0  0  0  0  0  0  0  0  0  0
  -34.8360   12.3010  -23.5310 C   0  0  0  0  0  3  0  0  0  0  0  0
  -35.2020   12.2310  -19.8610 C   0  0  0  0  0  0  0  0  0  0  0  0
  -33.0380   12.6220  -19.3110 C   0  0  0  0  0  3  0  0  0  0  0  0
  -34.7350   12.6900  -21.0780 C   0  0  0  0  0  0  0  0  0  0  0  0
  -34.2220   12.1990  -18.8660 N   0  0  0  0  0  0  0  0  0  0  0  0
  -33.0380   13.1130  -20.9920 S   0  0  0  0  0  0  0  0  0  0  0  0
  -36.5770   11.7570  -19.5100 C   0  0  0  0  0  1  0  0  0  0  0  0
  -37.5800   12.9140  -26.1630 C   0  0  0  0  0  2  0  0  0  0  0  0
  -36.2060   13.7030  -28.0700 C   0  0  0  0  0  0  0  0  0  0  0  0
  -36.4820   14.8980  -27.9100 O   0  0  0  0  0  0  0  0  0  0  0  0
  -36.7430   12.7240  -27.3380 N   0  0  0  0  0  0  0  0  0  0  0  0
  -36.4860   11.7720  -27.5610 H   0  0  0  0  0  0  0  0  0  0  0  0
  -36.1250   14.4520  -31.0870 C   0  0  0  0  0  0  0  0  0  0  0  0
  -35.1620   13.2590  -29.1100 C   0  0  0  0  0  3  0  0  0  0  0  0
  -33.6690   14.4720  -30.5700 C   0  0  0  0  0  2  0  0  0  0  0  0
  -35.0700   14.1310  -30.2950 N   0  0  0  0  0  0  0  0  0  0  0  0
  -37.2560   14.0000  -30.8770 O   0  0  0  0  0  0  0  0  0  0  0  0
  -33.7640   13.2830  -28.4710 C   0  0  0  0  0  2  0  0  0  0  0  0
  -32.8280   13.6350  -29.6090 C   0  0  0  0  0  3  0  0  0  0  0  0
  -32.4020   12.4630  -30.2880 O   0  0  0  0  0  0  0  0  0  0  0  0
  -33.1710   12.0040  -30.6120 H   0  0  0  0  0  0  0  0  0  0  0  0
  -35.9290   15.3840  -32.3130 C   0  0  0  0  0  3  0  0  0  0  0  0
  -36.6960   14.8040  -33.4270 N   0  0  0  0  0  0  0  0  0  0  0  0
  -36.1920   14.2580  -34.5420 C   0  0  0  0  0  0  0  0  0  0  0  0
  -34.9820   14.2560  -34.7830 O   0  0  0  0  0  0  0  0  0  0  0  0
  -37.6930   14.7060  -33.2900 H   0  0  0  0  0  0  0  0  0  0  0  0
  -37.1990   13.6430  -35.4780 C   0  0  1  0  0  0  0  0  0  0  0  0
  -38.4720   13.5380  -34.9410 F   0  0  0  0  0  0  0  0  0  0  0  0
  -37.1010   13.9210  -36.9590 C   0  0  0  0  0  2  0  0  0  0  0  0
  -36.7700   12.5450  -36.4260 C   0  0  0  0  0  2  0  0  0  0  0  0
  -35.6710   17.4680  -30.8110 C   0  0  0  0  0  1  0  0  0  0  0  0
  -35.9400   17.7380  -33.2610 C   0  0  0  0  0  1  0  0  0  0  0  0
  -37.8970   17.0200  -31.8780 C   0  0  0  0  0  1  0  0  0  0  0  0
  -36.3690   16.8720  -32.0580 C   0  0  1  0  0  0  0  0  0  0  0  0
  -38.6150   14.0650  -23.8230 O   0  0  0  0  0  0  0  0  0  0  0  0
  -39.8320   15.9420  -24.4310 C   0  0  0  0  0  3  0  0  0  0  0  0
  -40.1180   17.1490  -26.5860 C   0  0  0  0  0  0  0  0  0  0  0  0
  -37.6170   16.4010  -23.8300 C   0  0  0  0  0  2  0  0  0  0  0  0
  -37.9010   16.9130  -25.2430 C   0  0  0  0  0  2  0  0  0  0  0  0
  -38.7810   15.4460  -23.4950 C   0  0  0  0  0  3  0  0  0  0  0  0
  -39.3370   16.6910  -25.4520 N   0  0  0  0  0  0  0  0  0  0  0  0
  -41.1040   15.5400  -24.2420 N   0  0  0  0  0  0  0  0  0  0  0  0
  -41.3260   16.8810  -26.6460 O   0  0  0  0  0  0  0  0  0  0  0  0
  -41.3350   14.9140  -23.4860 H   0  0  0  0  0  0  0  0  0  0  0  0
  -41.8290   15.8020  -24.8990 H   0  0  0  0  0  0  0  0  0  0  0  0
  -40.1170   18.9550  -28.4160 N   0  0  0  0  0  0  0  0  0  0  0  0
  -39.7880   19.4610  -29.7820 C   0  0  0  0  0  2  0  0  0  0  0  0
  -41.0250   19.3950  -30.7360 C   0  0  0  0  0  2  0  0  0  0  0  0
  -42.1180   18.5930  -30.1750 N   0  0  0  0  0  0  0  0  0  0  0  0
  -42.5700   18.9400  -28.8260 C   0  0  0  0  0  2  0  0  0  0  0  0
  -41.4180   19.4960  -27.9530 C   0  0  0  0  0  2  0  0  0  0  0  0
  -39.4660   17.9230  -27.7760 C   0  0  0  0  0  3  0  0  0  0  0  0
  -38.2720   17.5400  -28.2660 N   0  0  0  0  0  0  0  0  0  0  0  0
  -37.8470   16.6510  -28.0590 H   0  0  0  0  0  0  0  0  0  0  0  0
  -37.8080   18.1240  -28.9340 H   0  0  0  0  0  0  0  0  0  0  0  0
  -43.0500   18.0270  -31.0790 C   0  0  0  0  0  0  0  0  0  0  0  0
  -44.3550   18.5360  -31.2620 C   0  0  0  0  0  3  0  0  0  0  0  0
  -45.2330   17.8860  -32.1730 C   0  0  0  0  0  0  0  0  0  0  0  0
  -44.7980   16.7870  -32.8530 N   0  0  0  0  0  0  0  0  0  0  0  0
  -43.5720   16.2820  -32.6850 N   0  0  0  0  0  0  0  0  0  0  0  0
  -42.7160   16.8770  -31.8300 C   0  0  0  0  0  0  0  0  0  0  0  0
  -41.4850   16.2660  -31.6730 N   0  0  0  0  0  0  0  0  0  0  0  0
  -41.0270   16.5640  -30.8230 H   0  0  0  0  0  0  0  0  0  0  0  0
  -41.4660   15.2690  -31.8320 H   0  0  0  0  0  0  0  0  0  0  0  0
  -46.6450   18.3290  -32.4390 C   0  0  0  0  0  0  0  0  0  0  0  0
  -47.5670   17.6360  -33.2910 C   0  0  0  0  0  0  0  0  0  0  0  0
  -48.8840   18.1040  -33.4770 C   0  0  0  0  0  3  0  0  0  0  0  0
  -49.3320   19.2650  -32.8310 C   0  0  0  0  0  3  0  0  0  0  0  0
  -48.4520   19.9690  -31.9990 C   0  0  0  0  0  3  0  0  0  0  0  0
  -47.1360   19.5070  -31.8120 C   0  0  0  0  0  3  0  0  0  0  0  0
  -47.2470   16.4960  -33.9730 O   0  0  0  0  0  0  0  0  0  0  0  0
  -46.3330   16.2570  -33.8110 H   0  0  0  0  0  0  0  0  0  0  0  0
  1  2  1  0
  2  3  2  0
  3  9  1  0
  4  6  2  0
  5  4  1  0
  5  1  2  0
  6  3  1  0
  7 12  1  0
  7 10  1  0
  8 10  2  0
  9 11  1  0
  9  7  2  0
 11  8  1  0
 13  5  1  0
 14 15  2  0
 14 16  1  0
 16 13  1  0
 17 16  1  0
 18 22  2  0
 18 21  1  0
 19 23  1  0
 19 14  1  0
 20 21  1  0
 20 24  1  0
 21 19  1  0
 24 25  1  0
 24 23  1  0
 26 25  1  0
 27 39  1  0
 27 18  1  0
 28 31  1  0
 28 27  1  0
 29 28  1  0
 30 29  2  0
 32 33  1  1
 32 29  1  0
 34 35  1  0
 34 32  1  0
 35 32  1  0
 39 37  1  6
 39 38  1  0
 39 36  1  0
 40  1  1  0
 41 47  1  0
 41 45  1  0
 42 46  1  0
 43 45  1  0
 44 43  1  0
 45 40  1  0
 46 44  1  0
 46 41  1  0
 47 49  1  0
 48 42  2  0
 50 47  1  0
 51 56  1  0
 51 57  1  0
 52 51  1  0
 53 54  1  0
 53 52  1  0
 54 55  1  0
 55 56  1  0
 57 42  1  0
 58 59  1  0
 58 57  1  0
 60 58  1  0
 61 54  1  0
 62 61  1  0
 63 62  2  0
 64 65  2  0
 64 63  1  0
 65 66  1  0
 66 67  1  0
 66 61  2  0
 67 68  1  0
 69 67  1  0
 70 63  1  0
 70 75  1  0
 71 70  2  0
 72 71  1  0
 72 73  2  0
 73 74  1  0
 74 75  2  0
 76 77  1  0
 76 71  1  0
M  ISO  4  40 101  45 101  51 100  57 100
M  END
>  <TORSDO>  (17) 
F 15

>  <SCORE>  (17) 
-15.001

>  <name>  (17) 
16

>  <ligand_id>  (17) 
16

>  <original_smiles>  (17) 
[H]Oc1c([H])c([H])c([H])c([H])c1-c1nnc(N([H])[H])c(N2C([H])([H])C([H])([H])N(C(C(=O)N3C(=[N+]([H])[H])C([H])(Oc4c([H])c(-c5sc([H])nc5C([H])([H])[H])c([H])c([H])c4C([H])([H])N([H])C(=O)C4([H])N(C(=O)C([H])(N([H])C(=O)C5(F)C([H])([H])C5([H])[H])C(C([H])([H])[H])(C([H])([H])[H])C([H])([H])[H])C([H])([H])C([H])(O[H])C4([H])[H])C([H])([H])C3([H])[H])=[N+]([H])[H])C([H])([H])C2([H])[H])c1[H]

>  <smiles>  (17) 
[H]Oc1c([H])c([H])c([H])c([H])c1-c1nnc(N([H])[H])c(N2C([H])([H])C([H])([H])N(C(C(=O)N3C(=[N+]([H])[H])C([H])(Oc4c([H])c(-c5sc([H])nc5C([H])([H])[H])c([H])c([H])c4C([H])([H])N([H])C(=O)C4([H])N(C(=O)C([H])(N([H])C(=O)C5(F)C([H])([H])C5([H])[H])C(C([H])([H])[H])(C([H])([H])[H])C([H])([H])[H])C([H])([H])C([H])(O[H])C4([H])[H])C([H])([H])C3([H])[H])=[N+]([H])[H])C([H])([H])C2([H])[H])c1[H]

$$$$
17:0:0
     RDKit          3D

 76 84  0  0  1  0  0  0  0  0999 V2000
  -37.3870   13.4940  -23.7120 C   0  0  0  0  0  0  0  0  0  0  0  0
  -36.6810   13.4190  -22.4850 C   0  0  0  0  0  3  0  0  0  0  0  0
  -35.4270   12.7760  -22.3980 C   0  0  0  0  0  0  0  0  0  0  0  0
  -35.5450   12.3110  -24.7950 C   0  0  0  0  0  3  0  0  0  0  0  0
  -36.8130   12.9290  -24.8760 C   0  0  0  0  0  0  0  0  0  0  0  0
  -34.8620   12.2370  -23.5710 C   0  0  0  0  0  3  0  0  0  0  0  0
  -35.2210   12.1800  -19.8980 C   0  0  0  0  0  0  0  0  0  0  0  0
  -33.0500   12.5100  -19.3460 C   0  0  0  0  0  3  0  0  0  0  0  0
  -34.7390   12.6220  -21.1150 C   0  0  0  0  0  0  0  0  0  0  0  0
  -34.2450   12.1200  -18.9020 N   0  0  0  0  0  0  0  0  0  0  0  0
  -33.0330   13.0010  -21.0270 S   0  0  0  0  0  0  0  0  0  0  0  0
  -36.6130   11.7540  -19.5460 C   0  0  0  0  0  1  0  0  0  0  0  0
  -37.5880   12.9620  -26.1930 C   0  0  0  0  0  2  0  0  0  0  0  0
  -36.2100   13.7180  -28.1090 C   0  0  0  0  0  0  0  0  0  0  0  0
  -36.4650   14.9140  -27.9470 O   0  0  0  0  0  0  0  0  0  0  0  0
  -36.7570   12.7480  -27.3720 N   0  0  0  0  0  0  0  0  0  0  0  0
  -36.5150   11.7920  -27.5920 H   0  0  0  0  0  0  0  0  0  0  0  0
  -36.1580   14.4500  -31.1300 C   0  0  0  0  0  0  0  0  0  0  0  0
  -35.1750   13.2680  -29.1530 C   0  0  0  0  0  3  0  0  0  0  0  0
  -33.6990   14.4900  -30.6250 C   0  0  0  0  0  2  0  0  0  0  0  0
  -35.0960   14.1380  -30.3420 N   0  0  0  0  0  0  0  0  0  0  0  0
  -37.2830   13.9840  -30.9160 O   0  0  0  0  0  0  0  0  0  0  0  0
  -33.7720   13.3040  -28.5230 C   0  0  0  0  0  2  0  0  0  0  0  0
  -32.8470   13.6640  -29.6660 C   0  0  0  0  0  3  0  0  0  0  0  0
  -32.4160   12.4920  -30.3420 O   0  0  0  0  0  0  0  0  0  0  0  0
  -33.1830   12.0220  -30.6510 H   0  0  0  0  0  0  0  0  0  0  0  0
  -35.9720   15.3740  -32.3630 C   0  0  0  0  0  3  0  0  0  0  0  0
  -36.7280   14.7720  -33.4740 N   0  0  0  0  0  0  0  0  0  0  0  0
  -36.2180   14.2400  -34.5940 C   0  0  0  0  0  0  0  0  0  0  0  0
  -35.0100   14.2720  -34.8430 O   0  0  0  0  0  0  0  0  0  0  0  0
  -37.7210   14.6460  -33.3290 H   0  0  0  0  0  0  0  0  0  0  0  0
  -37.2120   13.5990  -35.5230 C   0  0  1  0  0  0  0  0  0  0  0  0
  -38.4790   13.4550  -34.9790 F   0  0  0  0  0  0  0  0  0  0  0  0
  -37.1320   13.8860  -37.0050 C   0  0  0  0  0  2  0  0  0  0  0  0
  -36.7600   12.5170  -36.4810 C   0  0  0  0  0  2  0  0  0  0  0  0
  -35.7720   17.4710  -30.8630 C   0  0  0  0  0  1  0  0  0  0  0  0
  -35.9960   17.7220  -33.3240 C   0  0  0  0  0  1  0  0  0  0  0  0
  -37.9640   16.9920  -31.9600 C   0  0  0  0  0  1  0  0  0  0  0  0
  -36.4340   16.8580  -32.1210 C   0  0  1  0  0  0  0  0  0  0  0  0
  -38.6330   14.0660  -23.8530 O   0  0  0  0  0  0  0  0  0  0  0  0
  -39.2730   18.3180  -25.7320 C   0  0  0  0  0  3  0  0  0  0  0  0
  -38.5040   19.2400  -26.4710 C   0  0  0  0  0  0  0  0  0  0  0  0
  -38.7010   17.8510  -24.5300 C   0  0  0  0  0  0  0  0  0  0  0  0
  -40.6810   15.0560  -23.1610 C   0  0  0  0  0  2  0  0  0  0  0  0
  -40.5520   16.2350  -24.1230 C   0  0  0  0  0  2  0  0  0  0  0  0
  -38.6320   16.1760  -22.6870 C   0  0  0  0  0  2  0  0  0  0  0  0
  -39.2330   14.7690  -22.7680 C   0  0  0  0  0  3  0  0  0  0  0  0
  -37.2730   19.6110  -26.0340 N   0  0  0  0  0  0  0  0  0  0  0  0
  -37.4740   18.2680  -24.1420 N   0  0  0  0  0  0  0  0  0  0  0  0
  -36.7790   19.1170  -24.8990 N   0  0  0  0  0  0  0  0  0  0  0  0
  -39.3820   16.9740  -23.6600 N   0  0  0  0  0  0  0  0  0  0  0  0
  -39.9830   19.3530  -28.4540 N   0  0  0  0  0  0  0  0  0  0  0  0
  -39.7780   19.3460  -29.9220 C   0  0  0  0  0  2  0  0  0  0  0  0
  -41.0610   19.4520  -30.7660 C   0  0  0  0  0  2  0  0  0  0  0  0
  -42.1010   18.6150  -30.1930 N   0  0  0  0  0  0  0  0  0  0  0  0
  -42.4510   18.8230  -28.7940 C   0  0  0  0  0  2  0  0  0  0  0  0
  -41.3710   19.6230  -28.0270 C   0  0  0  0  0  2  0  0  0  0  0  0
  -39.0030   19.9300  -27.7190 C   0  0  0  0  0  0  0  0  0  0  0  0
  -38.4150   20.9500  -28.1050 O   0  0  0  0  0  0  0  0  0  0  0  0
  -43.0350   18.0170  -31.0660 C   0  0  0  0  0  0  0  0  0  0  0  0
  -44.3380   18.5260  -31.2550 C   0  0  0  0  0  3  0  0  0  0  0  0
  -45.2210   17.8490  -32.1410 C   0  0  0  0  0  0  0  0  0  0  0  0
  -44.7930   16.7290  -32.7900 N   0  0  0  0  0  0  0  0  0  0  0  0
  -43.5680   16.2280  -32.6130 N   0  0  0  0  0  0  0  0  0  0  0  0
  -42.7050   16.8450  -31.7820 C   0  0  0  0  0  0  0  0  0  0  0  0
  -41.4720   16.2400  -31.6160 N   0  0  0  0  0  0  0  0  0  0  0  0
  -40.9990   16.5630  -30.7810 H   0  0  0  0  0  0  0  0  0  0  0  0
  -41.4470   15.2400  -31.7510 H   0  0  0  0  0  0  0  0  0  0  0  0
  -46.6350   18.2880  -32.4100 C   0  0  0  0  0  0  0  0  0  0  0  0
  -47.5570   17.5830  -33.2510 C   0  0  0  0  0  0  0  0  0  0  0  0
  -48.8760   18.0460  -33.4400 C   0  0  0  0  0  3  0  0  0  0  0  0
  -49.3240   19.2150  -32.8090 C   0  0  0  0  0  3  0  0  0  0  0  0
  -48.4420   19.9320  -31.9900 C   0  0  0  0  0  3  0  0  0  0  0  0
  -47.1250   19.4740  -31.8000 C   0  0  0  0  0  3  0  0  0  0  0  0
  -47.2360   16.4340  -33.9160 O   0  0  0  0  0  0  0  0  0  0  0  0
  -46.3210   16.2010  -33.7550 H   0  0  0  0  0  0  0  0  0  0  0  0
  1  2  1  0
  2  3  2  0
  3  9  1  0
  4  6  2  0
  5  4  1  0
  5  1  2  0
  6  3  1  0
  7 12  1  0
  7 10  1  0
  8 10  2  0
  9 11  1  0
  9  7  2  0
 11  8  1  0
 13  5  1  0
 14 15  2  0
 14 16  1  0
 16 13  1  0
 17 16  1  0
 18 22  2  0
 18 21  1  0
 19 23  1  0
 19 14  1  0
 20 21  1  0
 20 24  1  0
 21 19  1  0
 24 25  1  0
 24 23  1  0
 26 25  1  0
 27 39  1  0
 27 18  1  0
 28 31  1  0
 28 27  1  0
 29 28  1  0
 30 29  2  0
 32 33  1  1
 32 29  1  0
 34 35  1  0
 34 32  1  0
 35 32  1  0
 39 37  1  6
 39 38  1  0
 39 36  1  0
 40  1  1  0
 41 43  1  0
 42 48  1  0
 42 41  2  0
 43 49  2  0
 43 51  1  0
 44 47  1  0
 45 51  1  0
 45 44  1  0
 47 40  1  0
 47 46  1  0
 48 50  2  0
 50 49  1  0
 51 46  1  0
 52 57  1  0
 52 58  1  0
 53 52  1  0
 54 55  1  0
 54 53  1  0
 55 56  1  0
 56 57  1  0
 58 42  1  0
 59 58  2  0
 60 55  1  0
 61 60  1  0
 62 61  2  0
 63 64  2  0
 63 62  1  0
 64 65  1  0
 65 66  1  0
 65 60  2  0
 66 67  1  0
 68 66  1  0
 69 62  1  0
 69 74  1  0
 70 69  2  0
 71 70  1  0
 71 72  2  0
 72 73  1  0
 73 74  2  0
 75 76  1  0
 75 70  1  0
M  ISO  4  40 101  47 101  52 100  58 100
M  END
>  <TORSDO>  (18) 
F 15

>  <SCORE>  (18) 
-15.021

>  <name>  (18) 
17

>  <ligand_id>  (18) 
17

>  <original_smiles>  (18) 
[H]Oc1c([H])c([H])c([H])c([H])c1-c1nnc(N([H])[H])c(N2C([H])([H])C([H])([H])N(C(=O)c3nnnc(N4C([H])([H])C([H])([H])C([H])(Oc5c([H])c(-c6sc([H])nc6C([H])([H])[H])c([H])c([H])c5C([H])([H])N([H])C(=O)C5([H])N(C(=O)C([H])(N([H])C(=O)C6(F)C([H])([H])C6([H])[H])C(C([H])([H])[H])(C([H])([H])[H])C([H])([H])[H])C([H])([H])C([H])(O[H])C5([H])[H])C4([H])[H])c3[H])C([H])([H])C2([H])[H])c1[H]

>  <smiles>  (18) 
[H]Oc1c([H])c([H])c([H])c([H])c1-c1nnc(N([H])[H])c(N2C([H])([H])C([H])([H])N(C(=O)c3nnnc(N4C([H])([H])C([H])([H])C([H])(Oc5c([H])c(-c6sc([H])nc6C([H])([H])[H])c([H])c([H])c5C([H])([H])N([H])C(=O)C5([H])N(C(=O)C([H])(N([H])C(=O)C6(F)C([H])([H])C6([H])[H])C(C([H])([H])[H])(C([H])([H])[H])C([H])([H])[H])C([H])([H])C([H])(O[H])C5([H])[H])C4([H])[H])c3[H])C([H])([H])C2([H])[H])c1[H]

$$$$
18:0:0
     RDKit          3D

 77 85  0  0  1  0  0  0  0  0999 V2000
  -37.4360   13.4790  -23.7190 C   0  0  0  0  0  0  0  0  0  0  0  0
  -36.7160   13.4380  -22.5000 C   0  0  0  0  0  3  0  0  0  0  0  0
  -35.4560   12.8100  -22.4060 C   0  0  0  0  0  0  0  0  0  0  0  0
  -35.5730   12.3270  -24.7990 C   0  0  0  0  0  3  0  0  0  0  0  0
  -36.8450   12.9380  -24.8860 C   0  0  0  0  0  0  0  0  0  0  0  0
  -34.8900   12.2610  -23.5730 C   0  0  0  0  0  3  0  0  0  0  0  0
  -35.2500   12.2250  -19.9050 C   0  0  0  0  0  0  0  0  0  0  0  0
  -33.0910   12.6040  -19.3410 C   0  0  0  0  0  3  0  0  0  0  0  0
  -34.7710   12.6760  -21.1190 C   0  0  0  0  0  0  0  0  0  0  0  0
  -34.2800   12.1920  -18.9010 N   0  0  0  0  0  0  0  0  0  0  0  0
  -33.0720   13.0860  -21.0250 S   0  0  0  0  0  0  0  0  0  0  0  0
  -36.6320   11.7560  -19.5700 C   0  0  0  0  0  1  0  0  0  0  0  0
  -37.6100   12.9700  -26.2090 C   0  0  0  0  0  2  0  0  0  0  0  0
  -36.2140   13.7100  -28.1210 C   0  0  0  0  0  0  0  0  0  0  0  0
  -36.4750   14.9040  -27.9680 O   0  0  0  0  0  0  0  0  0  0  0  0
  -36.7670   12.7450  -27.3810 N   0  0  0  0  0  0  0  0  0  0  0  0
  -36.5290   11.7860  -27.5930 H   0  0  0  0  0  0  0  0  0  0  0  0
  -36.1440   14.4330  -31.1440 C   0  0  0  0  0  0  0  0  0  0  0  0
  -35.1650   13.2640  -29.1560 C   0  0  0  0  0  3  0  0  0  0  0  0
  -33.6920   14.4970  -30.6240 C   0  0  0  0  0  2  0  0  0  0  0  0
  -35.0850   14.1300  -30.3470 N   0  0  0  0  0  0  0  0  0  0  0  0
  -37.2660   13.9580  -30.9380 O   0  0  0  0  0  0  0  0  0  0  0  0
  -33.7650   13.3120  -28.5190 C   0  0  0  0  0  2  0  0  0  0  0  0
  -32.8350   13.6810  -29.6580 C   0  0  0  0  0  3  0  0  0  0  0  0
  -32.3860   12.5140  -30.3300 O   0  0  0  0  0  0  0  0  0  0  0  0
  -33.1470   12.0330  -30.6420 H   0  0  0  0  0  0  0  0  0  0  0  0
  -35.9590   15.3570  -32.3760 C   0  0  0  0  0  3  0  0  0  0  0  0
  -36.7110   14.7540  -33.4890 N   0  0  0  0  0  0  0  0  0  0  0  0
  -36.2010   14.2250  -34.6090 C   0  0  0  0  0  0  0  0  0  0  0  0
  -34.9940   14.2600  -34.8590 O   0  0  0  0  0  0  0  0  0  0  0  0
  -37.7040   14.6240  -33.3440 H   0  0  0  0  0  0  0  0  0  0  0  0
  -37.1940   13.5840  -35.5410 C   0  0  1  0  0  0  0  0  0  0  0  0
  -38.4580   13.4310  -34.9930 F   0  0  0  0  0  0  0  0  0  0  0  0
  -37.1220   13.8790  -37.0210 C   0  0  0  0  0  2  0  0  0  0  0  0
  -36.7390   12.5100  -36.5040 C   0  0  0  0  0  2  0  0  0  0  0  0
  -35.7560   17.4560  -30.8820 C   0  0  0  0  0  1  0  0  0  0  0  0
  -35.9930   17.7020  -33.3410 C   0  0  0  0  0  1  0  0  0  0  0  0
  -37.9520   16.9670  -31.9650 C   0  0  0  0  0  1  0  0  0  0  0  0
  -36.4230   16.8400  -32.1350 C   0  0  1  0  0  0  0  0  0  0  0  0
  -38.6980   14.0310  -23.8060 O   0  0  0  0  0  0  0  0  0  0  0  0
  -39.2590   17.8790  -25.3420 C   0  0  0  0  0  3  0  0  0  0  0  0
  -39.7520   17.1820  -24.2240 C   0  0  0  0  0  3  0  0  0  0  0  0
  -39.8290   17.5950  -26.5980 C   0  0  0  0  0  0  0  0  0  0  0  0
  -40.7700   16.2200  -24.4270 C   0  0  0  0  0  0  0  0  0  0  0  0
  -41.6410   13.1510  -24.1690 C   0  0  0  0  0  2  0  0  0  0  0  0
  -40.6150   12.6450  -23.1420 C   0  0  0  0  0  2  0  0  0  0  0  0
  -42.3210   14.4430  -23.6750 C   0  0  0  0  0  2  0  0  0  0  0  0
  -40.3740   15.0370  -22.3210 C   0  0  0  0  0  2  0  0  0  0  0  0
  -39.6200   13.7510  -22.7320 C   0  0  0  0  0  3  0  0  0  0  0  0
  -40.7950   16.6490  -26.7360 N   0  0  0  0  0  0  0  0  0  0  0  0
  -41.2650   15.9970  -25.6700 N   0  0  0  0  0  0  0  0  0  0  0  0
  -41.3130   15.4640  -23.3640 N   0  0  0  0  0  0  0  0  0  0  0  0
  -40.2440   19.0390  -28.5320 N   0  0  0  0  0  0  0  0  0  0  0  0
  -39.9900   19.4590  -29.9200 C   0  0  0  0  0  2  0  0  0  0  0  0
  -41.2730   19.4500  -30.8000 C   0  0  0  0  0  2  0  0  0  0  0  0
  -42.3090   18.5810  -30.2410 N   0  0  0  0  0  0  0  0  0  0  0  0
  -42.6950   18.7870  -28.8460 C   0  0  0  0  0  2  0  0  0  0  0  0
  -41.5630   19.4630  -28.0380 C   0  0  0  0  0  2  0  0  0  0  0  0
  -39.3440   18.3040  -27.8370 C   0  0  0  0  0  0  0  0  0  0  0  0
  -38.1630   18.1830  -28.1830 O   0  0  0  0  0  0  0  0  0  0  0  0
  -43.2430   18.0010  -31.1310 C   0  0  0  0  0  0  0  0  0  0  0  0
  -44.5470   18.5070  -31.3180 C   0  0  0  0  0  3  0  0  0  0  0  0
  -45.4240   17.8480  -32.2260 C   0  0  0  0  0  0  0  0  0  0  0  0
  -44.9900   16.7400  -32.8920 N   0  0  0  0  0  0  0  0  0  0  0  0
  -43.7660   16.2370  -32.7160 N   0  0  0  0  0  0  0  0  0  0  0  0
  -42.9100   16.8420  -31.8660 C   0  0  0  0  0  0  0  0  0  0  0  0
  -41.6740   16.2440  -31.7010 N   0  0  0  0  0  0  0  0  0  0  0  0
  -41.2180   16.5800  -30.8630 H   0  0  0  0  0  0  0  0  0  0  0  0
  -41.6460   15.2420  -31.8190 H   0  0  0  0  0  0  0  0  0  0  0  0
  -46.8330   18.2930  -32.4980 C   0  0  0  0  0  0  0  0  0  0  0  0
  -47.7650   17.5810  -33.3250 C   0  0  0  0  0  0  0  0  0  0  0  0
  -49.0790   18.0510  -33.5180 C   0  0  0  0  0  3  0  0  0  0  0  0
  -49.5180   19.2320  -32.9050 C   0  0  0  0  0  3  0  0  0  0  0  0
  -48.6280   19.9550  -32.0990 C   0  0  0  0  0  3  0  0  0  0  0  0
  -47.3140   19.4910  -31.9050 C   0  0  0  0  0  3  0  0  0  0  0  0
  -47.4550   16.4190  -33.9730 O   0  0  0  0  0  0  0  0  0  0  0  0
  -46.5440   16.1730  -33.8090 H   0  0  0  0  0  0  0  0  0  0  0  0
  1  2  1  0
  2  3  2  0
  3  9  1  0
  4  6  2  0
  5  4  1  0
  5  1  2  0
  6  3  1  0
  7 12  1  0
  7 10  1  0
  8 10  2  0
  9 11  1  0
  9  7  2  0
 11  8  1  0
 13  5  1  0
 14 15  2  0
 14 16  1  0
 16 13  1  0
 17 16  1  0
 18 22  2  0
 18 21  1  0
 19 23  1  0
 19 14  1  0
 20 21  1  0
 20 24  1  0
 21 19  1  0
 24 25  1  0
 24 23  1  0
 26 25  1  0
 27 39  1  0
 27 18  1  0
 28 31  1  0
 28 27  1  0
 29 28  1  0
 30 29  2  0
 32 33  1  1
 32 29  1  0
 34 35  1  0
 34 32  1  0
 35 32  1  0
 39 37  1  6
 39 38  1  0
 39 36  1  0
 40  1  1  0
 41 42  1  0
 43 41  2  0
 44 42  2  0
 44 52  1  0
 45 47  1  0
 45 46  1  0
 46 49  1  0
 47 52  1  0
 49 40  1  0
 49 48  1  0
 50 43  1  0
 50 51  2  0
 51 44  1  0
 52 48  1  0
 53 58  1  0
 53 59  1  0
 54 53  1  0
 55 56  1  0
 55 54  1  0
 56 57  1  0
 57 58  1  0
 59 43  1  0
 60 59  2  0
 61 56  1  0
 62 61  1  0
 63 62  2  0
 64 65  2  0
 64 63  1  0
 65 66  1  0
 66 67  1  0
 66 61  2  0
 67 68  1  0
 69 67  1  0
 70 63  1  0
 70 75  1  0
 71 70  2  0
 72 71  1  0
 72 73  2  0
 73 74  1  0
 74 75  2  0
 76 77  1  0
 76 71  1  0
M  ISO  4  40 101  49 101  53 100  59 100
M  END
>  <TORSDO>  (19) 
F 15

>  <SCORE>  (19) 
-15.142

>  <name>  (19) 
18

>  <ligand_id>  (19) 
18

>  <original_smiles>  (19) 
[H]Oc1c([H])c([H])c([H])c([H])c1-c1nnc(N([H])[H])c(N2C([H])([H])C([H])([H])N(C(=O)c3nnc(N4C([H])([H])C([H])([H])C([H])([H])C([H])(Oc5c([H])c(-c6sc([H])nc6C([H])([H])[H])c([H])c([H])c5C([H])([H])N([H])C(=O)C5([H])N(C(=O)C([H])(N([H])C(=O)C6(F)C([H])([H])C6([H])[H])C(C([H])([H])[H])(C([H])([H])[H])C([H])([H])[H])C([H])([H])C([H])(O[H])C5([H])[H])C4([H])[H])c([H])c3[H])C([H])([H])C2([H])[H])c1[H]

>  <smiles>  (19) 
[H]Oc1c([H])c([H])c([H])c([H])c1-c1nnc(N([H])[H])c(N2C([H])([H])C([H])([H])N(C(=O)c3nnc(N4C([H])([H])C([H])([H])C([H])([H])C([H])(Oc5c([H])c(-c6sc([H])nc6C([H])([H])[H])c([H])c([H])c5C([H])([H])N([H])C(=O)C5([H])N(C(=O)C([H])(N([H])C(=O)C6(F)C([H])([H])C6([H])[H])C(C([H])([H])[H])(C([H])([H])[H])C([H])([H])[H])C([H])([H])C([H])(O[H])C5([H])[H])C4([H])[H])c([H])c3[H])C([H])([H])C2([H])[H])c1[H]

$$$$
19:0:0
     RDKit          3D

 76 84  0  0  1  0  0  0  0  0999 V2000
  -37.4020   13.4750  -23.7230 C   0  0  0  0  0  0  0  0  0  0  0  0
  -36.7070   13.4220  -22.4930 C   0  0  0  0  0  3  0  0  0  0  0  0
  -35.4540   12.7830  -22.3950 C   0  0  0  0  0  0  0  0  0  0  0  0
  -35.5550   12.3040  -24.7930 C   0  0  0  0  0  3  0  0  0  0  0  0
  -36.8230   12.9190  -24.8820 C   0  0  0  0  0  0  0  0  0  0  0  0
  -34.8800   12.2390  -23.5630 C   0  0  0  0  0  3  0  0  0  0  0  0
  -35.2680   12.2040  -19.8920 C   0  0  0  0  0  0  0  0  0  0  0  0
  -33.1010   12.5480  -19.3280 C   0  0  0  0  0  3  0  0  0  0  0  0
  -34.7770   12.6410  -21.1080 C   0  0  0  0  0  0  0  0  0  0  0  0
  -34.2980   12.1540  -18.8880 N   0  0  0  0  0  0  0  0  0  0  0  0
  -33.0740   13.0250  -21.0130 S   0  0  0  0  0  0  0  0  0  0  0  0
  -36.6600   11.7660  -19.5500 C   0  0  0  0  0  1  0  0  0  0  0  0
  -37.5970   12.9480  -26.2020 C   0  0  0  0  0  2  0  0  0  0  0  0
  -36.2190   13.7030  -28.1130 C   0  0  0  0  0  0  0  0  0  0  0  0
  -36.4790   14.8980  -27.9480 O   0  0  0  0  0  0  0  0  0  0  0  0
  -36.7630   12.7310  -27.3780 N   0  0  0  0  0  0  0  0  0  0  0  0
  -36.5190   11.7750  -27.5960 H   0  0  0  0  0  0  0  0  0  0  0  0
  -36.1560   14.4370  -31.1300 C   0  0  0  0  0  0  0  0  0  0  0  0
  -35.1740   13.2610  -29.1490 C   0  0  0  0  0  3  0  0  0  0  0  0
  -33.6970   14.4890  -30.6160 C   0  0  0  0  0  2  0  0  0  0  0  0
  -35.0940   14.1300  -30.3400 N   0  0  0  0  0  0  0  0  0  0  0  0
  -37.2800   13.9680  -30.9210 O   0  0  0  0  0  0  0  0  0  0  0  0
  -33.7740   13.3040  -28.5110 C   0  0  0  0  0  2  0  0  0  0  0  0
  -32.8450   13.6670  -29.6520 C   0  0  0  0  0  3  0  0  0  0  0  0
  -32.4080   12.4990  -30.3280 O   0  0  0  0  0  0  0  0  0  0  0  0
  -33.1720   12.0320  -30.6520 H   0  0  0  0  0  0  0  0  0  0  0  0
  -35.9720   15.3650  -32.3610 C   0  0  0  0  0  3  0  0  0  0  0  0
  -36.7300   14.7740  -33.4760 N   0  0  0  0  0  0  0  0  0  0  0  0
  -36.2200   14.2300  -34.5880 C   0  0  0  0  0  0  0  0  0  0  0  0
  -35.0100   14.2470  -34.8300 O   0  0  0  0  0  0  0  0  0  0  0  0
  -37.7300   14.6800  -33.3470 H   0  0  0  0  0  0  0  0  0  0  0  0
  -37.2160   13.5940  -35.5220 C   0  0  1  0  0  0  0  0  0  0  0  0
  -38.4830   13.4490  -34.9770 F   0  0  0  0  0  0  0  0  0  0  0  0
  -37.1360   13.8820  -37.0030 C   0  0  0  0  0  2  0  0  0  0  0  0
  -36.7610   12.5130  -36.4790 C   0  0  0  0  0  2  0  0  0  0  0  0
  -35.7460   17.4590  -30.8680 C   0  0  0  0  0  1  0  0  0  0  0  0
  -36.0100   17.7090  -33.3260 C   0  0  0  0  0  1  0  0  0  0  0  0
  -37.9520   16.9820  -31.9320 C   0  0  0  0  0  1  0  0  0  0  0  0
  -36.4280   16.8480  -32.1140 C   0  0  1  0  0  0  0  0  0  0  0  0
  -38.6340   14.0570  -23.8550 O   0  0  0  0  0  0  0  0  0  0  0  0
  -40.8330   13.3420  -23.4010 C   0  0  0  0  0  2  0  0  0  0  0  0
  -39.8250   15.3720  -22.2340 C   0  0  0  0  0  2  0  0  0  0  0  0
  -41.3350   14.2110  -24.5770 C   0  0  0  0  0  2  0  0  0  0  0  0
  -41.0210   16.0570  -22.9290 C   0  0  0  0  0  2  0  0  0  0  0  0
  -39.5630   13.9480  -22.7760 C   0  0  0  0  0  3  0  0  0  0  0  0
  -41.0970   15.6490  -24.3360 N   0  0  0  0  0  0  0  0  0  0  0  0
  -40.2600   19.1930  -28.3390 N   0  0  0  0  0  0  0  0  0  0  0  0
  -39.8820   19.3410  -29.7580 C   0  0  0  0  0  2  0  0  0  0  0  0
  -41.1050   19.3340  -30.7400 C   0  0  0  0  0  2  0  0  0  0  0  0
  -42.2340   18.5700  -30.2020 N   0  0  0  0  0  0  0  0  0  0  0  0
  -42.6810   18.8850  -28.8450 C   0  0  0  0  0  2  0  0  0  0  0  0
  -41.6120   19.6670  -28.0450 C   0  0  0  0  0  2  0  0  0  0  0  0
  -40.0550   17.7720  -25.1540 C   0  0  0  0  0  3  0  0  0  0  0  0
  -40.2310   16.7610  -27.6440 C   0  0  0  0  0  0  0  0  0  0  0  0
  -40.5440   16.4530  -25.3630 C   0  0  0  0  0  0  0  0  0  0  0  0
  -39.9500   18.1440  -27.4420 C   0  0  0  0  0  0  0  0  0  0  0  0
  -40.2800   16.0700  -28.9800 C   0  0  0  0  0  1  0  0  0  0  0  0
  -39.7670   18.6030  -26.1810 N   0  0  0  0  0  0  0  0  0  0  0  0
  -40.5490   15.9440  -26.6160 N   0  0  0  0  0  0  0  0  0  0  0  0
  -43.1530   17.9890  -31.1060 C   0  0  0  0  0  0  0  0  0  0  0  0
  -44.4630   18.4840  -31.2850 C   0  0  0  0  0  3  0  0  0  0  0  0
  -45.3340   17.8280  -32.1980 C   0  0  0  0  0  0  0  0  0  0  0  0
  -44.8970   16.7300  -32.8740 N   0  0  0  0  0  0  0  0  0  0  0  0
  -43.6700   16.2400  -32.7100 N   0  0  0  0  0  0  0  0  0  0  0  0
  -42.8150   16.8430  -31.8660 C   0  0  0  0  0  0  0  0  0  0  0  0
  -41.5750   16.2460  -31.7730 N   0  0  0  0  0  0  0  0  0  0  0  0
  -41.0410   16.5240  -30.9660 H   0  0  0  0  0  0  0  0  0  0  0  0
  -41.4990   15.2790  -32.0510 H   0  0  0  0  0  0  0  0  0  0  0  0
  -46.7470   18.2610  -32.4750 C   0  0  0  0  0  0  0  0  0  0  0  0
  -47.6630   17.5510  -33.3200 C   0  0  0  0  0  0  0  0  0  0  0  0
  -48.9800   18.0070  -33.5190 C   0  0  0  0  0  3  0  0  0  0  0  0
  -49.4370   19.1780  -32.8960 C   0  0  0  0  0  3  0  0  0  0  0  0
  -48.5650   19.8990  -32.0700 C   0  0  0  0  0  3  0  0  0  0  0  0
  -47.2470   19.4460  -31.8690 C   0  0  0  0  0  3  0  0  0  0  0  0
  -47.3370   16.4010  -33.9840 O   0  0  0  0  0  0  0  0  0  0  0  0
  -46.4220   16.1690  -33.8250 H   0  0  0  0  0  0  0  0  0  0  0  0
  1  2  1  0
  2  3  2  0
  3  9  1  0
  4  6  2  0
  5  4  1  0
  5  1  2  0
  6  3  1  0
  7 12  1  0
  7 10  1  0
  8 10  2  0
  9 11  1  0
  9  7  2  0
 11  8  1  0
 13  5  1  0
 14 15  2  0
 14 16  1  0
 16 13  1  0
 17 16  1  0
 18 22  2  0
 18 21  1  0
 19 23  1  0
 19 14  1  0
 20 21  1  0
 20 24  1  0
 21 19  1  0
 24 25  1  0
 24 23  1  0
 26 25  1  0
 27 39  1  0
 27 18  1  0
 28 31  1  0
 28 27  1  0
 29 28  1  0
 30 29  2  0
 32 33  1  1
 32 29  1  0
 34 35  1  0
 34 32  1  0
 35 32  1  0
 39 37  1  6
 39 38  1  0
 39 36  1  0
 40  1  1  0
 41 45  1  0
 43 46  1  0
 43 41  1  0
 44 42  1  0
 45 40  1  0
 45 42  1  0
 46 44  1  0
 47 52  1  0
 47 56  1  0
 48 47  1  0
 49 50  1  0
 49 48  1  0
 50 51  1  0
 51 52  1  0
 54 56  2  0
 54 59  1  0
 55 53  1  0
 55 46  1  0
 56 58  1  0
 57 54  1  0
 58 53  2  0
 59 55  2  0
 60 50  1  0
 61 60  1  0
 62 61  2  0
 63 64  2  0
 63 62  1  0
 64 65  1  0
 65 66  1  0
 65 60  2  0
 66 67  1  0
 68 66  1  0
 69 62  1  0
 69 74  1  0
 70 69  2  0
 71 70  1  0
 71 72  2  0
 72 73  1  0
 73 74  2  0
 75 76  1  0
 75 70  1  0
M  ISO  4  40 101  45 101  47 100  56 100
M  END
>  <TORSDO>  (20) 
F 15

>  <SCORE>  (20) 
-15.033

>  <name>  (20) 
19

>  <ligand_id>  (20) 
19

>  <original_smiles>  (20) 
[H]Oc1c([H])c([H])c([H])c([H])c1-c1nnc(N([H])[H])c(N2C([H])([H])C([H])([H])N(c3nc([H])c(N4C([H])([H])C([H])([H])C([H])(Oc5c([H])c(-c6sc([H])nc6C([H])([H])[H])c([H])c([H])c5C([H])([H])N([H])C(=O)C5([H])N(C(=O)C([H])(N([H])C(=O)C6(F)C([H])([H])C6([H])[H])C(C([H])([H])[H])(C([H])([H])[H])C([H])([H])[H])C([H])([H])C([H])(O[H])C5([H])[H])C([H])([H])C4([H])[H])nc3C([H])([H])[H])C([H])([H])C2([H])[H])c1[H]

>  <smiles>  (20) 
[H]Oc1c([H])c([H])c([H])c([H])c1-c1nnc(N([H])[H])c(N2C([H])([H])C([H])([H])N(c3nc([H])c(N4C([H])([H])C([H])([H])C([H])(Oc5c([H])c(-c6sc([H])nc6C([H])([H])[H])c([H])c([H])c5C([H])([H])N([H])C(=O)C5([H])N(C(=O)C([H])(N([H])C(=O)C6(F)C([H])([H])C6([H])[H])C(C([H])([H])[H])(C([H])([H])[H])C([H])([H])[H])C([H])([H])C([H])(O[H])C5([H])[H])C([H])([H])C4([H])[H])nc3C([H])([H])[H])C([H])([H])C2([H])[H])c1[H]

$$$$
20:0:0
     RDKit          3D

 79 87  0  0  1  0  0  0  0  0999 V2000
  -38.6200   13.9850  -23.6820 O   0  0  0  0  0  0  0  0  0  0  0  0
  -39.5650   17.8270  -25.5480 C   0  0  0  0  0  3  0  0  0  0  0  0
  -41.8070   16.4080  -26.0600 C   0  0  0  0  0  3  0  0  0  0  0  0
  -39.9830   17.4850  -26.8320 C   0  0  0  0  0  0  0  0  0  0  0  0
  -40.4420   17.4520  -24.5270 C   0  0  0  0  0  0  0  0  0  0  0  0
  -38.0740   16.2420  -23.1640 C   0  0  0  0  0  2  0  0  0  0  0  0
  -40.4400   15.1980  -22.5880 C   0  0  0  0  0  2  0  0  0  0  0  0
  -38.7150   17.5950  -22.8130 C   0  0  0  0  0  2  0  0  0  0  0  0
  -40.8530   16.6580  -22.2690 C   0  0  0  0  0  2  0  0  0  0  0  0
  -38.9140   15.0070  -22.7110 C   0  0  0  0  0  3  0  0  0  0  0  0
  -41.0430   16.7050  -27.0950 N   0  0  0  0  0  0  0  0  0  0  0  0
  -41.5980   16.8300  -24.8280 N   0  0  0  0  0  0  0  0  0  0  0  0
  -40.1370   17.5900  -23.1520 N   0  0  0  0  0  0  0  0  0  0  0  0
  -40.1210   19.0750  -28.6180 N   0  0  0  0  0  0  0  0  0  0  0  0
  -39.8510   19.5380  -29.9780 C   0  0  0  0  0  2  0  0  0  0  0  0
  -41.1230   19.4230  -30.8680 C   0  0  0  0  0  2  0  0  0  0  0  0
  -42.1640   18.5870  -30.2560 N   0  0  0  0  0  0  0  0  0  0  0  0
  -42.5910   18.9180  -28.8970 C   0  0  0  0  0  2  0  0  0  0  0  0
  -41.4300   19.5400  -28.0970 C   0  0  0  0  0  2  0  0  0  0  0  0
  -39.4060   18.1020  -28.0050 C   0  0  0  0  0  3  0  0  0  0  0  0
  -38.1930   17.7020  -28.4030 N   0  0  0  0  0  0  0  0  0  0  0  0
  -37.6330   18.1610  -29.1000 H   0  0  0  0  0  0  0  0  0  0  0  0
  -37.7860   16.9440  -27.8740 H   0  0  0  0  0  0  0  0  0  0  0  0
  -43.1130   18.0080  -31.1290 C   0  0  0  0  0  0  0  0  0  0  0  0
  -44.4080   18.5270  -31.3100 C   0  0  0  0  0  3  0  0  0  0  0  0
  -45.3000   17.8640  -32.2000 C   0  0  0  0  0  0  0  0  0  0  0  0
  -44.8810   16.7520  -32.8680 N   0  0  0  0  0  0  0  0  0  0  0  0
  -43.6590   16.2460  -32.7010 N   0  0  0  0  0  0  0  0  0  0  0  0
  -42.7920   16.8400  -31.8570 C   0  0  0  0  0  0  0  0  0  0  0  0
  -41.5600   16.2250  -31.7080 N   0  0  0  0  0  0  0  0  0  0  0  0
  -40.8670   16.7880  -31.2290 H   0  0  0  0  0  0  0  0  0  0  0  0
  -41.2220   15.6620  -32.4780 H   0  0  0  0  0  0  0  0  0  0  0  0
  -46.7080   18.3220  -32.4570 C   0  0  0  0  0  0  0  0  0  0  0  0
  -47.6410   17.6540  -33.3210 C   0  0  0  0  0  0  0  0  0  0  0  0
  -48.9570   18.1380  -33.4910 C   0  0  0  0  0  3  0  0  0  0  0  0
  -49.3930   19.2850  -32.8110 C   0  0  0  0  0  3  0  0  0  0  0  0
  -48.5080   19.9590  -31.9620 C   0  0  0  0  0  3  0  0  0  0  0  0
  -47.1970   19.4830  -31.7970 C   0  0  0  0  0  3  0  0  0  0  0  0
  -47.3240   16.5330  -34.0320 O   0  0  0  0  0  0  0  0  0  0  0  0
  -46.4130   16.2730  -33.8860 H   0  0  0  0  0  0  0  0  0  0  0  0
  -37.3470   13.4490  -23.6590 C   0  0  0  0  0  0  0  0  0  0  0  0
  -36.6080   13.3350  -22.4580 C   0  0  0  0  0  3  0  0  0  0  0  0
  -35.3350   12.7650  -22.4060 C   0  0  0  0  0  0  0  0  0  0  0  0
  -35.4550   12.4020  -24.8100 C   0  0  0  0  0  3  0  0  0  0  0  0
  -36.7540   12.9610  -24.8560 C   0  0  0  0  0  0  0  0  0  0  0  0
  -34.7410   12.3140  -23.6000 C   0  0  0  0  0  3  0  0  0  0  0  0
  -35.1420   12.1380  -19.9140 C   0  0  0  0  0  0  0  0  0  0  0  0
  -33.0270   12.6480  -19.2990 C   0  0  0  0  0  3  0  0  0  0  0  0
  -34.6640   12.6270  -21.1140 C   0  0  0  0  0  0  0  0  0  0  0  0
  -34.1920   12.1470  -18.8920 N   0  0  0  0  0  0  0  0  0  0  0  0
  -33.0080   13.1640  -20.9750 S   0  0  0  0  0  0  0  0  0  0  0  0
  -36.5050   11.5960  -19.5900 C   0  0  0  0  0  1  0  0  0  0  0  0
  -37.5340   13.0060  -26.1670 C   0  0  0  0  0  2  0  0  0  0  0  0
  -36.1820   13.7670  -28.1140 C   0  0  0  0  0  0  0  0  0  0  0  0
  -36.4630   14.9580  -27.9720 O   0  0  0  0  0  0  0  0  0  0  0  0
  -36.7080   12.7990  -27.3560 N   0  0  0  0  0  0  0  0  0  0  0  0
  -36.4430   11.8480  -27.5670 H   0  0  0  0  0  0  0  0  0  0  0  0
  -36.1300   14.4520  -31.1580 C   0  0  0  0  0  0  0  0  0  0  0  0
  -35.1350   13.3210  -29.1510 C   0  0  0  0  0  3  0  0  0  0  0  0
  -33.6820   14.5550  -30.6420 C   0  0  0  0  0  2  0  0  0  0  0  0
  -35.0690   14.1720  -30.3570 N   0  0  0  0  0  0  0  0  0  0  0  0
  -37.2460   13.9690  -30.9440 O   0  0  0  0  0  0  0  0  0  0  0  0
  -33.7310   13.3950  -28.5230 C   0  0  0  0  0  2  0  0  0  0  0  0
  -32.8120   13.7660  -29.6690 C   0  0  0  0  0  3  0  0  0  0  0  0
  -32.3430   12.5980  -30.3260 O   0  0  0  0  0  0  0  0  0  0  0  0
  -33.0970   12.1100  -30.6430 H   0  0  0  0  0  0  0  0  0  0  0  0
  -35.9570   15.3680  -32.4010 C   0  0  0  0  0  3  0  0  0  0  0  0
  -36.7160   14.7560  -33.5060 N   0  0  0  0  0  0  0  0  0  0  0  0
  -36.2070   14.2230  -34.6270 C   0  0  0  0  0  0  0  0  0  0  0  0
  -35.0030   14.2670  -34.8880 O   0  0  0  0  0  0  0  0  0  0  0  0
  -37.7060   14.6150  -33.3530 H   0  0  0  0  0  0  0  0  0  0  0  0
  -37.2030   13.5660  -35.5470 C   0  0  1  0  0  0  0  0  0  0  0  0
  -38.4600   13.4110  -34.9900 F   0  0  0  0  0  0  0  0  0  0  0  0
  -37.1440   13.8530  -37.0300 C   0  0  0  0  0  2  0  0  0  0  0  0
  -36.7470   12.4900  -36.5090 C   0  0  0  0  0  2  0  0  0  0  0  0
  -35.7520   17.4760  -30.9170 C   0  0  0  0  0  1  0  0  0  0  0  0
  -35.9850   17.7140  -33.3800 C   0  0  0  0  0  1  0  0  0  0  0  0
  -37.9490   16.9900  -32.0000 C   0  0  0  0  0  1  0  0  0  0  0  0
  -36.4180   16.8560  -32.1700 C   0  0  1  0  0  0  0  0  0  0  0  0
  1 41  1  0
  2  5  1  0
  3 12  1  0
  4  2  2  0
  5 13  1  0
  6  8  1  0
  6 10  1  0
  7  9  1  0
 10  1  1  0
 10  7  1  0
 11  4  1  0
 11  3  2  0
 12  5  2  0
 13  8  1  0
 13  9  1  0
 14 19  1  0
 14 20  1  0
 15 14  1  0
 16 17  1  0
 16 15  1  0
 17 18  1  0
 18 19  1  0
 20 21  1  0
 20  4  1  0
 21 23  1  0
 22 21  1  0
 24 17  1  0
 25 24  1  0
 26 25  2  0
 27 28  2  0
 27 26  1  0
 28 29  1  0
 29 30  1  0
 29 24  2  0
 30 31  1  0
 32 30  1  0
 33 26  1  0
 33 38  1  0
 34 33  2  0
 35 34  1  0
 35 36  2  0
 36 37  1  0
 37 38  2  0
 39 40  1  0
 39 34  1  0
 41 42  1  0
 42 43  2  0
 43 49  1  0
 44 46  2  0
 45 44  1  0
 45 41  2  0
 46 43  1  0
 47 52  1  0
 47 50  1  0
 48 50  2  0
 49 51  1  0
 49 47  2  0
 51 48  1  0
 53 45  1  0
 54 55  2  0
 54 56  1  0
 56 53  1  0
 57 56  1  0
 58 62  2  0
 58 61  1  0
 59 63  1  0
 59 54  1  0
 60 61  1  0
 60 64  1  0
 61 59  1  0
 64 65  1  0
 64 63  1  0
 66 65  1  0
 67 79  1  0
 67 58  1  0
 68 71  1  0
 68 67  1  0
 69 68  1  0
 70 69  2  0
 72 73  1  1
 72 69  1  0
 74 75  1  0
 74 72  1  0
 75 72  1  0
 79 77  1  6
 79 78  1  0
 79 76  1  0
M  ISO  4   1 101  10 101  14 100  20 100
M  END
>  <TORSDO>  (21) 
F 15

>  <SCORE>  (21) 
-15.165

>  <name>  (21) 
20

>  <ligand_id>  (21) 
20

>  <original_smiles>  (21) 
[H]Oc1c([H])c([H])c([H])c([H])c1-c1nnc(N([H])[H])c(N2C([H])([H])C([H])([H])N(C(c3nc([H])nc(N4C([H])([H])C([H])([H])C([H])(Oc5c([H])c(-c6sc([H])nc6C([H])([H])[H])c([H])c([H])c5C([H])([H])N([H])C(=O)C5([H])N(C(=O)C([H])(N([H])C(=O)C6(F)C([H])([H])C6([H])[H])C(C([H])([H])[H])(C([H])([H])[H])C([H])([H])[H])C([H])([H])C([H])(O[H])C5([H])[H])C([H])([H])C4([H])[H])c3[H])=[N+]([H])[H])C([H])([H])C2([H])[H])c1[H]

>  <smiles>  (21) 
[H]Oc1c([H])c([H])c([H])c([H])c1-c1nnc(N([H])[H])c(N2C([H])([H])C([H])([H])N(C(c3nc([H])nc(N4C([H])([H])C([H])([H])C([H])(Oc5c([H])c(-c6sc([H])nc6C([H])([H])[H])c([H])c([H])c5C([H])([H])N([H])C(=O)C5([H])N(C(=O)C([H])(N([H])C(=O)C6(F)C([H])([H])C6([H])[H])C(C([H])([H])[H])(C([H])([H])[H])C([H])([H])[H])C([H])([H])C([H])(O[H])C5([H])[H])C([H])([H])C4([H])[H])c3[H])=[N+]([H])[H])C([H])([H])C2([H])[H])c1[H]

$$$$
21:0:0
     RDKit          3D

 76 84  0  0  1  0  0  0  0  0999 V2000
  -37.4110   13.4390  -23.6910 C   0  0  0  0  0  0  0  0  0  0  0  0
  -36.7070   13.4120  -22.4660 C   0  0  0  0  0  3  0  0  0  0  0  0
  -35.4320   12.8180  -22.3860 C   0  0  0  0  0  0  0  0  0  0  0  0
  -35.5160   12.3760  -24.7910 C   0  0  0  0  0  3  0  0  0  0  0  0
  -36.8080   12.9360  -24.8660 C   0  0  0  0  0  0  0  0  0  0  0  0
  -34.8410   12.3090  -23.5620 C   0  0  0  0  0  3  0  0  0  0  0  0
  -35.2210   12.2150  -19.8900 C   0  0  0  0  0  0  0  0  0  0  0  0
  -33.0590   12.6040  -19.3340 C   0  0  0  0  0  3  0  0  0  0  0  0
  -34.7480   12.6780  -21.1030 C   0  0  0  0  0  0  0  0  0  0  0  0
  -34.2450   12.1820  -18.8920 N   0  0  0  0  0  0  0  0  0  0  0  0
  -33.0530   13.0990  -21.0140 S   0  0  0  0  0  0  0  0  0  0  0  0
  -36.5980   11.7370  -19.5490 C   0  0  0  0  0  1  0  0  0  0  0  0
  -37.5800   12.9730  -26.1900 C   0  0  0  0  0  2  0  0  0  0  0  0
  -36.2050   13.7110  -28.1070 C   0  0  0  0  0  0  0  0  0  0  0  0
  -36.4640   14.9060  -27.9500 O   0  0  0  0  0  0  0  0  0  0  0  0
  -36.7470   12.7440  -27.3640 N   0  0  0  0  0  0  0  0  0  0  0  0
  -36.4950   11.7860  -27.5700 H   0  0  0  0  0  0  0  0  0  0  0  0
  -36.1480   14.4350  -31.1300 C   0  0  0  0  0  0  0  0  0  0  0  0
  -35.1630   13.2620  -29.1430 C   0  0  0  0  0  3  0  0  0  0  0  0
  -33.6910   14.4820  -30.6230 C   0  0  0  0  0  2  0  0  0  0  0  0
  -35.0880   14.1270  -30.3380 N   0  0  0  0  0  0  0  0  0  0  0  0
  -37.2740   13.9690  -30.9190 O   0  0  0  0  0  0  0  0  0  0  0  0
  -33.7600   13.3100  -28.5130 C   0  0  0  0  0  2  0  0  0  0  0  0
  -32.8370   13.6600  -29.6620 C   0  0  0  0  0  3  0  0  0  0  0  0
  -32.4120   12.4840  -30.3310 O   0  0  0  0  0  0  0  0  0  0  0  0
  -33.1810   12.0270  -30.6580 H   0  0  0  0  0  0  0  0  0  0  0  0
  -35.9600   15.3570  -32.3650 C   0  0  0  0  0  3  0  0  0  0  0  0
  -36.7140   14.7560  -33.4770 N   0  0  0  0  0  0  0  0  0  0  0  0
  -36.2020   14.2200  -34.5930 C   0  0  0  0  0  0  0  0  0  0  0  0
  -34.9930   14.2500  -34.8400 O   0  0  0  0  0  0  0  0  0  0  0  0
  -37.7070   14.6300  -33.3340 H   0  0  0  0  0  0  0  0  0  0  0  0
  -37.1950   13.5780  -35.5260 C   0  0  1  0  0  0  0  0  0  0  0  0
  -38.4610   13.4310  -34.9820 F   0  0  0  0  0  0  0  0  0  0  0  0
  -37.1140   13.8650  -37.0080 C   0  0  0  0  0  2  0  0  0  0  0  0
  -36.7400   12.4970  -36.4820 C   0  0  0  0  0  2  0  0  0  0  0  0
  -35.7480   17.4640  -30.8780 C   0  0  0  0  0  1  0  0  0  0  0  0
  -35.9930   17.7020  -33.3350 C   0  0  0  0  0  1  0  0  0  0  0  0
  -37.9500   16.9740  -31.9530 C   0  0  0  0  0  1  0  0  0  0  0  0
  -36.4210   16.8420  -32.1260 C   0  0  1  0  0  0  0  0  0  0  0  0
  -38.7030   13.8640  -23.8290 O   0  0  0  0  0  0  0  0  0  0  0  0
  -39.6260   15.8480  -23.1220 C   0  0  0  0  0  0  0  0  0  0  0  0
  -40.9020   13.9000  -23.0480 C   0  0  0  0  0  2  0  0  0  0  0  0
  -41.2390   14.7010  -24.3090 C   0  0  0  0  0  2  0  0  0  0  0  0
  -39.4880   14.3900  -22.7570 C   0  0  0  0  0  3  0  0  0  0  0  0
  -40.4220   15.9240  -24.2030 N   0  0  0  0  0  0  0  0  0  0  0  0
  -39.0620   16.7620  -22.5100 O   0  0  0  0  0  0  0  0  0  0  0  0
  -40.2590   19.3760  -28.3580 N   0  0  0  0  0  0  0  0  0  0  0  0
  -39.9290   19.3610  -29.7840 C   0  0  0  0  0  2  0  0  0  0  0  0
  -41.1770   19.4590  -30.7030 C   0  0  0  0  0  2  0  0  0  0  0  0
  -42.2870   18.6750  -30.1570 N   0  0  0  0  0  0  0  0  0  0  0  0
  -42.6820   18.8920  -28.7660 C   0  0  0  0  0  2  0  0  0  0  0  0
  -41.6310   19.7340  -27.9990 C   0  0  0  0  0  2  0  0  0  0  0  0
  -40.5350   16.3670  -26.6110 C   0  0  0  0  0  3  0  0  0  0  0  0
  -39.3180   18.7400  -26.2310 C   0  0  0  0  0  0  0  0  0  0  0  0
  -40.1360   16.7750  -25.3080 C   0  0  0  0  0  0  0  0  0  0  0  0
  -39.8390   18.3680  -27.4930 C   0  0  0  0  0  0  0  0  0  0  0  0
  -38.6780   20.0930  -25.9800 C   0  0  0  0  0  1  0  0  0  0  0  0
  -40.3670   17.1430  -27.7040 N   0  0  0  0  0  0  0  0  0  0  0  0
  -39.4670   17.9460  -25.1510 N   0  0  0  0  0  0  0  0  0  0  0  0
  -43.1860   18.0510  -31.0410 C   0  0  0  0  0  0  0  0  0  0  0  0
  -44.4840   18.5500  -31.2590 C   0  0  0  0  0  3  0  0  0  0  0  0
  -45.3510   17.8610  -32.1490 C   0  0  0  0  0  0  0  0  0  0  0  0
  -44.9040   16.7370  -32.7830 N   0  0  0  0  0  0  0  0  0  0  0  0
  -43.6790   16.2440  -32.5810 N   0  0  0  0  0  0  0  0  0  0  0  0
  -42.8360   16.8690  -31.7330 C   0  0  0  0  0  0  0  0  0  0  0  0
  -41.6070   16.2690  -31.5320 N   0  0  0  0  0  0  0  0  0  0  0  0
  -41.1810   16.5790  -30.6650 H   0  0  0  0  0  0  0  0  0  0  0  0
  -41.5730   15.2720  -31.6800 H   0  0  0  0  0  0  0  0  0  0  0  0
  -46.7590   18.2960  -32.4400 C   0  0  0  0  0  0  0  0  0  0  0  0
  -47.6670   17.5890  -33.2950 C   0  0  0  0  0  0  0  0  0  0  0  0
  -48.9800   18.0510  -33.5060 C   0  0  0  0  0  3  0  0  0  0  0  0
  -49.4390   19.2220  -32.8820 C   0  0  0  0  0  3  0  0  0  0  0  0
  -48.5730   19.9400  -32.0470 C   0  0  0  0  0  3  0  0  0  0  0  0
  -47.2600   19.4820  -31.8350 C   0  0  0  0  0  3  0  0  0  0  0  0
  -47.3330   16.4400  -33.9550 O   0  0  0  0  0  0  0  0  0  0  0  0
  -46.4240   16.1970  -33.7800 H   0  0  0  0  0  0  0  0  0  0  0  0
  1  2  1  0
  2  3  2  0
  3  9  1  0
  4  6  2  0
  5  4  1  0
  5  1  2  0
  6  3  1  0
  7 12  1  0
  7 10  1  0
  8 10  2  0
  9 11  1  0
  9  7  2  0
 11  8  1  0
 13  5  1  0
 14 15  2  0
 14 16  1  0
 16 13  1  0
 17 16  1  0
 18 22  2  0
 18 21  1  0
 19 23  1  0
 19 14  1  0
 20 21  1  0
 20 24  1  0
 21 19  1  0
 24 25  1  0
 24 23  1  0
 26 25  1  0
 27 39  1  0
 27 18  1  0
 28 31  1  0
 28 27  1  0
 29 28  1  0
 30 29  2  0
 32 33  1  1
 32 29  1  0
 34 35  1  0
 34 32  1  0
 35 32  1  0
 39 37  1  6
 39 38  1  0
 39 36  1  0
 40  1  1  0
 41 44  1  0
 41 46  2  0
 42 44  1  0
 43 45  1  0
 43 42  1  0
 44 40  1  0
 45 41  1  0
 47 52  1  0
 47 56  1  0
 48 47  1  0
 49 50  1  0
 49 48  1  0
 50 51  1  0
 51 52  1  0
 53 55  1  0
 54 57  1  0
 54 59  1  0
 55 59  2  0
 55 45  1  0
 56 54  2  0
 58 56  1  0
 58 53  2  0
 60 50  1  0
 61 60  1  0
 62 61  2  0
 63 64  2  0
 63 62  1  0
 64 65  1  0
 65 66  1  0
 65 60  2  0
 66 67  1  0
 68 66  1  0
 69 62  1  0
 69 74  1  0
 70 69  2  0
 71 70  1  0
 71 72  2  0
 72 73  1  0
 73 74  2  0
 75 76  1  0
 75 70  1  0
M  ISO  4  40 101  44 101  47 100  56 100
M  END
>  <TORSDO>  (22) 
F 15

>  <SCORE>  (22) 
-15.014

>  <name>  (22) 
21

>  <ligand_id>  (22) 
21

>  <original_smiles>  (22) 
[H]Oc1c([H])c([H])c([H])c([H])c1-c1nnc(N([H])[H])c(N2C([H])([H])C([H])([H])N(c3nc([H])c(N4C(=O)C([H])(Oc5c([H])c(-c6sc([H])nc6C([H])([H])[H])c([H])c([H])c5C([H])([H])N([H])C(=O)C5([H])N(C(=O)C([H])(N([H])C(=O)C6(F)C([H])([H])C6([H])[H])C(C([H])([H])[H])(C([H])([H])[H])C([H])([H])[H])C([H])([H])C([H])(O[H])C5([H])[H])C([H])([H])C4([H])[H])nc3C([H])([H])[H])C([H])([H])C2([H])[H])c1[H]

>  <smiles>  (22) 
[H]Oc1c([H])c([H])c([H])c([H])c1-c1nnc(N([H])[H])c(N2C([H])([H])C([H])([H])N(c3nc([H])c(N4C(=O)C([H])(Oc5c([H])c(-c6sc([H])nc6C([H])([H])[H])c([H])c([H])c5C([H])([H])N([H])C(=O)C5([H])N(C(=O)C([H])(N([H])C(=O)C6(F)C([H])([H])C6([H])[H])C(C([H])([H])[H])(C([H])([H])[H])C([H])([H])[H])C([H])([H])C([H])(O[H])C5([H])[H])C([H])([H])C4([H])[H])nc3C([H])([H])[H])C([H])([H])C2([H])[H])c1[H]

$$$$
22:0:0
     RDKit          3D

 77 85  0  0  1  0  0  0  0  0999 V2000
  -37.4070   13.4860  -23.7220 C   0  0  0  0  0  0  0  0  0  0  0  0
  -36.6960   13.4360  -22.4960 C   0  0  0  0  0  3  0  0  0  0  0  0
  -35.4430   12.7990  -22.3980 C   0  0  0  0  0  0  0  0  0  0  0  0
  -35.5410   12.3320  -24.7960 C   0  0  0  0  0  3  0  0  0  0  0  0
  -36.8150   12.9380  -24.8860 C   0  0  0  0  0  0  0  0  0  0  0  0
  -34.8660   12.2590  -23.5650 C   0  0  0  0  0  3  0  0  0  0  0  0
  -35.2620   12.2190  -19.8890 C   0  0  0  0  0  0  0  0  0  0  0  0
  -33.0990   12.5710  -19.3140 C   0  0  0  0  0  3  0  0  0  0  0  0
  -34.7710   12.6560  -21.1050 C   0  0  0  0  0  0  0  0  0  0  0  0
  -34.2970   12.1750  -18.8810 N   0  0  0  0  0  0  0  0  0  0  0  0
  -33.0720   13.0530  -20.9990 S   0  0  0  0  0  0  0  0  0  0  0  0
  -36.6490   11.7720  -19.5440 C   0  0  0  0  0  1  0  0  0  0  0  0
  -37.5800   12.9550  -26.2100 C   0  0  0  0  0  2  0  0  0  0  0  0
  -36.1900   13.6890  -28.1200 C   0  0  0  0  0  0  0  0  0  0  0  0
  -36.4490   14.8840  -27.9630 O   0  0  0  0  0  0  0  0  0  0  0  0
  -36.7400   12.7220  -27.3810 N   0  0  0  0  0  0  0  0  0  0  0  0
  -36.4980   11.7630  -27.5890 H   0  0  0  0  0  0  0  0  0  0  0  0
  -36.1190   14.4190  -31.1380 C   0  0  0  0  0  0  0  0  0  0  0  0
  -35.1430   13.2470  -29.1560 C   0  0  0  0  0  3  0  0  0  0  0  0
  -33.6610   14.4750  -30.6180 C   0  0  0  0  0  2  0  0  0  0  0  0
  -35.0590   14.1190  -30.3430 N   0  0  0  0  0  0  0  0  0  0  0  0
  -37.2440   13.9480  -30.9310 O   0  0  0  0  0  0  0  0  0  0  0  0
  -33.7470   13.2930  -28.5120 C   0  0  0  0  0  2  0  0  0  0  0  0
  -32.8140   13.6580  -29.6450 C   0  0  0  0  0  3  0  0  0  0  0  0
  -32.3750   12.4870  -30.3120 O   0  0  0  0  0  0  0  0  0  0  0  0
  -33.1420   12.0190  -30.6300 H   0  0  0  0  0  0  0  0  0  0  0  0
  -35.9310   15.3380  -32.3730 C   0  0  0  0  0  3  0  0  0  0  0  0
  -36.6980   14.7490  -33.4840 N   0  0  0  0  0  0  0  0  0  0  0  0
  -36.1990   14.2040  -34.6020 C   0  0  0  0  0  0  0  0  0  0  0  0
  -34.9910   14.2150  -34.8530 O   0  0  0  0  0  0  0  0  0  0  0  0
  -37.6950   14.6430  -33.3410 H   0  0  0  0  0  0  0  0  0  0  0  0
  -37.2080   13.5800  -35.5310 C   0  0  1  0  0  0  0  0  0  0  0  0
  -38.4720   13.4550  -34.9780 F   0  0  0  0  0  0  0  0  0  0  0  0
  -37.1330   13.8610  -37.0140 C   0  0  0  0  0  2  0  0  0  0  0  0
  -36.7760   12.4900  -36.4890 C   0  0  0  0  0  2  0  0  0  0  0  0
  -35.6820   17.4310  -30.8750 C   0  0  0  0  0  1  0  0  0  0  0  0
  -35.9270   17.6810  -33.3360 C   0  0  0  0  0  1  0  0  0  0  0  0
  -37.8960   16.9860  -31.9460 C   0  0  0  0  0  1  0  0  0  0  0  0
  -36.3690   16.8290  -32.1260 C   0  0  1  0  0  0  0  0  0  0  0  0
  -38.6760   14.0200  -23.8320 O   0  0  0  0  0  0  0  0  0  0  0  0
  -40.7790   16.8570  -26.3760 C   0  0  0  0  0  3  0  0  0  0  0  0
  -41.1380   16.2890  -25.1390 C   0  0  0  0  0  3  0  0  0  0  0  0
  -39.7870   17.8570  -26.4200 C   0  0  0  0  0  0  0  0  0  0  0  0
  -39.1830   18.2270  -25.1940 C   0  0  0  0  0  0  0  0  0  0  0  0
  -40.4750   16.7080  -23.9680 C   0  0  0  0  0  0  0  0  0  0  0  0
  -40.9460   13.7870  -22.9920 C   0  0  0  0  0  2  0  0  0  0  0  0
  -41.6890   15.0650  -22.5860 C   0  0  0  0  0  2  0  0  0  0  0  0
  -39.5040   15.5320  -22.1270 C   0  0  0  0  0  2  0  0  0  0  0  0
  -39.4800   14.0880  -22.6500 C   0  0  0  0  0  3  0  0  0  0  0  0
  -38.0780   19.2640  -25.0960 C   0  0  0  0  0  1  0  0  0  0  0  0
  -39.5330   17.6740  -24.0090 N   0  0  0  0  0  0  0  0  0  0  0  0
  -40.7050   16.1360  -22.6980 N   0  0  0  0  0  0  0  0  0  0  0  0
  -40.2770   19.0950  -28.4940 N   0  0  0  0  0  0  0  0  0  0  0  0
  -40.0090   19.4620  -29.8960 C   0  0  0  0  0  2  0  0  0  0  0  0
  -41.2830   19.4580  -30.7860 C   0  0  0  0  0  2  0  0  0  0  0  0
  -42.3230   18.5950  -30.2300 N   0  0  0  0  0  0  0  0  0  0  0  0
  -42.7270   18.8430  -28.8470 C   0  0  0  0  0  2  0  0  0  0  0  0
  -41.6040   19.5360  -28.0370 C   0  0  0  0  0  2  0  0  0  0  0  0
  -39.3590   18.4360  -27.7450 C   0  0  0  0  0  0  0  0  0  0  0  0
  -38.1950   18.2700  -28.1200 O   0  0  0  0  0  0  0  0  0  0  0  0
  -43.2520   18.0210  -31.1270 C   0  0  0  0  0  0  0  0  0  0  0  0
  -44.5570   18.5290  -31.3190 C   0  0  0  0  0  3  0  0  0  0  0  0
  -45.4320   17.8700  -32.2230 C   0  0  0  0  0  0  0  0  0  0  0  0
  -45.0000   16.7600  -32.8890 N   0  0  0  0  0  0  0  0  0  0  0  0
  -43.7760   16.2570  -32.7100 N   0  0  0  0  0  0  0  0  0  0  0  0
  -42.9210   16.8590  -31.8610 C   0  0  0  0  0  0  0  0  0  0  0  0
  -41.6910   16.2460  -31.6950 N   0  0  0  0  0  0  0  0  0  0  0  0
  -41.2300   16.5560  -30.8500 H   0  0  0  0  0  0  0  0  0  0  0  0
  -41.6800   15.2460  -31.8390 H   0  0  0  0  0  0  0  0  0  0  0  0
  -46.8450   18.3110  -32.4950 C   0  0  0  0  0  0  0  0  0  0  0  0
  -47.7670   17.6130  -33.3440 C   0  0  0  0  0  0  0  0  0  0  0  0
  -49.0840   18.0750  -33.5330 C   0  0  0  0  0  3  0  0  0  0  0  0
  -49.5330   19.2420  -32.8980 C   0  0  0  0  0  3  0  0  0  0  0  0
  -48.6530   19.9530  -32.0710 C   0  0  0  0  0  3  0  0  0  0  0  0
  -47.3370   19.4930  -31.8780 C   0  0  0  0  0  3  0  0  0  0  0  0
  -47.4430   16.4700  -34.0170 O   0  0  0  0  0  0  0  0  0  0  0  0
  -46.5300   16.2330  -33.8520 H   0  0  0  0  0  0  0  0  0  0  0  0
  1  2  1  0
  2  3  2  0
  3  9  1  0
  4  6  2  0
  5  4  1  0
  5  1  2  0
  6  3  1  0
  7 12  1  0
  7 10  1  0
  8 10  2  0
  9 11  1  0
  9  7  2  0
 11  8  1  0
 13  5  1  0
 14 15  2  0
 14 16  1  0
 16 13  1  0
 17 16  1  0
 18 22  2  0
 18 21  1  0
 19 23  1  0
 19 14  1  0
 20 21  1  0
 20 24  1  0
 21 19  1  0
 24 25  1  0
 24 23  1  0
 26 25  1  0
 27 39  1  0
 27 18  1  0
 28 31  1  0
 28 27  1  0
 29 28  1  0
 30 29  2  0
 32 33  1  1
 32 29  1  0
 34 35  1  0
 34 32  1  0
 35 32  1  0
 39 37  1  6
 39 38  1  0
 39 36  1  0
 40  1  1  0
 41 42  1  0
 42 45  2  0
 43 41  2  0
 43 44  1  0
 44 50  1  0
 44 51  2  0
 45 52  1  0
 46 49  1  0
 46 47  1  0
 49 40  1  0
 49 48  1  0
 51 45  1  0
 52 47  1  0
 52 48  1  0
 53 58  1  0
 53 59  1  0
 54 53  1  0
 55 56  1  0
 55 54  1  0
 56 57  1  0
 57 58  1  0
 59 43  1  0
 60 59  2  0
 61 56  1  0
 62 61  1  0
 63 62  2  0
 64 65  2  0
 64 63  1  0
 65 66  1  0
 66 67  1  0
 66 61  2  0
 67 68  1  0
 69 67  1  0
 70 63  1  0
 70 75  1  0
 71 70  2  0
 72 71  1  0
 72 73  2  0
 73 74  1  0
 74 75  2  0
 76 77  1  0
 76 71  1  0
M  ISO  4  40 101  49 101  53 100  59 100
M  END
>  <TORSDO>  (23) 
F 15

>  <SCORE>  (23) 
-15.092

>  <name>  (23) 
22

>  <ligand_id>  (23) 
22

>  <original_smiles>  (23) 
[H]Oc1c([H])c([H])c([H])c([H])c1-c1nnc(N([H])[H])c(N2C([H])([H])C([H])([H])N(C(=O)c3c(C([H])([H])[H])nc(N4C([H])([H])C([H])([H])C([H])(Oc5c([H])c(-c6sc([H])nc6C([H])([H])[H])c([H])c([H])c5C([H])([H])N([H])C(=O)C5([H])N(C(=O)C([H])(N([H])C(=O)C6(F)C([H])([H])C6([H])[H])C(C([H])([H])[H])(C([H])([H])[H])C([H])([H])[H])C([H])([H])C([H])(O[H])C5([H])[H])C4([H])[H])c([H])c3[H])C([H])([H])C2([H])[H])c1[H]

>  <smiles>  (23) 
[H]Oc1c([H])c([H])c([H])c([H])c1-c1nnc(N([H])[H])c(N2C([H])([H])C([H])([H])N(C(=O)c3c(C([H])([H])[H])nc(N4C([H])([H])C([H])([H])C([H])(Oc5c([H])c(-c6sc([H])nc6C([H])([H])[H])c([H])c([H])c5C([H])([H])N([H])C(=O)C5([H])N(C(=O)C([H])(N([H])C(=O)C6(F)C([H])([H])C6([H])[H])C(C([H])([H])[H])(C([H])([H])[H])C([H])([H])[H])C([H])([H])C([H])(O[H])C5([H])[H])C4([H])[H])c([H])c3[H])C([H])([H])C2([H])[H])c1[H]

$$$$
23:0:0
     RDKit          3D

 75 83  0  0  1  0  0  0  0  0999 V2000
  -37.3550   13.5240  -23.7190 C   0  0  0  0  0  0  0  0  0  0  0  0
  -36.6690   13.4600  -22.4850 C   0  0  0  0  0  3  0  0  0  0  0  0
  -35.4120   12.8230  -22.3820 C   0  0  0  0  0  0  0  0  0  0  0  0
  -35.5270   12.3040  -24.7730 C   0  0  0  0  0  3  0  0  0  0  0  0
  -36.7940   12.9220  -24.8700 C   0  0  0  0  0  0  0  0  0  0  0  0
  -34.8440   12.2640  -23.5460 C   0  0  0  0  0  3  0  0  0  0  0  0
  -35.1900   12.2520  -19.8780 C   0  0  0  0  0  0  0  0  0  0  0  0
  -33.0250   12.6250  -19.3280 C   0  0  0  0  0  3  0  0  0  0  0  0
  -34.7190   12.6960  -21.0990 C   0  0  0  0  0  0  0  0  0  0  0  0
  -34.2130   12.2160  -18.8800 N   0  0  0  0  0  0  0  0  0  0  0  0
  -33.0170   13.0970  -21.0150 S   0  0  0  0  0  0  0  0  0  0  0  0
  -36.5670   11.7850  -19.5230 C   0  0  0  0  0  1  0  0  0  0  0  0
  -37.5710   12.9120  -26.1860 C   0  0  0  0  0  2  0  0  0  0  0  0
  -36.1980   13.6840  -28.1010 C   0  0  0  0  0  0  0  0  0  0  0  0
  -36.4680   14.8780  -27.9440 O   0  0  0  0  0  0  0  0  0  0  0  0
  -36.7310   12.7100  -27.3590 N   0  0  0  0  0  0  0  0  0  0  0  0
  -36.4700   11.7570  -27.5720 H   0  0  0  0  0  0  0  0  0  0  0  0
  -36.1370   14.4190  -31.1220 C   0  0  0  0  0  0  0  0  0  0  0  0
  -35.1520   13.2430  -29.1410 C   0  0  0  0  0  3  0  0  0  0  0  0
  -33.6810   14.4720  -30.6100 C   0  0  0  0  0  2  0  0  0  0  0  0
  -35.0770   14.1130  -30.3310 N   0  0  0  0  0  0  0  0  0  0  0  0
  -37.2600   13.9450  -30.9140 O   0  0  0  0  0  0  0  0  0  0  0  0
  -33.7530   13.2890  -28.5060 C   0  0  0  0  0  2  0  0  0  0  0  0
  -32.8270   13.6490  -29.6490 C   0  0  0  0  0  3  0  0  0  0  0  0
  -32.3880   12.4790  -30.3230 O   0  0  0  0  0  0  0  0  0  0  0  0
  -33.1520   12.0100  -30.6420 H   0  0  0  0  0  0  0  0  0  0  0  0
  -35.9520   15.3470  -32.3530 C   0  0  0  0  0  3  0  0  0  0  0  0
  -36.7050   14.7460  -33.4660 N   0  0  0  0  0  0  0  0  0  0  0  0
  -36.1930   14.2140  -34.5840 C   0  0  0  0  0  0  0  0  0  0  0  0
  -34.9840   14.2460  -34.8310 O   0  0  0  0  0  0  0  0  0  0  0  0
  -37.6990   14.6220  -33.3230 H   0  0  0  0  0  0  0  0  0  0  0  0
  -37.1850   13.5720  -35.5180 C   0  0  1  0  0  0  0  0  0  0  0  0
  -38.4520   13.4270  -34.9760 F   0  0  0  0  0  0  0  0  0  0  0  0
  -37.1020   13.8560  -36.9990 C   0  0  0  0  0  2  0  0  0  0  0  0
  -36.7280   12.4890  -36.4720 C   0  0  0  0  0  2  0  0  0  0  0  0
  -35.7700   17.4360  -30.8400 C   0  0  0  0  0  1  0  0  0  0  0  0
  -35.9690   17.7030  -33.3000 C   0  0  0  0  0  1  0  0  0  0  0  0
  -37.9510   16.9570  -31.9600 C   0  0  0  0  0  1  0  0  0  0  0  0
  -36.4180   16.8290  -32.1080 C   0  0  1  0  0  0  0  0  0  0  0  0
  -38.5660   14.1710  -23.7940 O   0  0  0  0  0  0  0  0  0  0  0  0
  -38.4770   15.4980  -24.3250 C   0  0  0  0  0  2  0  0  0  0  0  0
  -40.0580   19.2090  -28.4220 N   0  0  0  0  0  0  0  0  0  0  0  0
  -39.8140   19.5150  -29.8390 C   0  0  0  0  0  2  0  0  0  0  0  0
  -41.0740   19.4440  -30.7400 C   0  0  0  0  0  2  0  0  0  0  0  0
  -42.1240   18.6220  -30.1470 N   0  0  0  0  0  0  0  0  0  0  0  0
  -42.5320   18.9120  -28.7750 C   0  0  0  0  0  2  0  0  0  0  0  0
  -41.4000   19.5500  -27.9340 C   0  0  0  0  0  2  0  0  0  0  0  0
  -36.8810   18.9240  -25.8840 C   0  0  0  0  0  3  0  0  0  0  0  0
  -36.7160   18.9940  -27.2700 C   0  0  0  0  0  3  0  0  0  0  0  0
  -38.1940   18.9250  -25.4050 C   0  0  0  0  0  0  0  0  0  0  0  0
  -38.9760   19.0900  -27.5520 C   0  0  0  0  0  0  0  0  0  0  0  0
  -40.1260   17.2550  -23.3840 C   0  0  0  0  0  2  0  0  0  0  0  0
  -39.8240   18.7500  -23.5370 C   0  0  0  0  0  2  0  0  0  0  0  0
  -37.7560   17.7540  -23.3170 C   0  0  0  0  0  2  0  0  0  0  0  0
  -38.7460   16.5740  -23.2420 C   0  0  0  0  0  3  0  0  0  0  0  0
  -37.7690   19.0780  -28.0980 N   0  0  0  0  0  0  0  0  0  0  0  0
  -39.2320   19.0180  -26.2510 N   0  0  0  0  0  0  0  0  0  0  0  0
  -38.4500   18.8290  -24.0180 N   0  0  0  0  0  0  0  0  0  0  0  0
  -43.0550   18.0320  -31.0330 C   0  0  0  0  0  0  0  0  0  0  0  0
  -44.3530   18.5420  -31.2390 C   0  0  0  0  0  3  0  0  0  0  0  0
  -45.2260   17.8650  -32.1350 C   0  0  0  0  0  0  0  0  0  0  0  0
  -44.7900   16.7410  -32.7760 N   0  0  0  0  0  0  0  0  0  0  0  0
  -43.5690   16.2390  -32.5820 N   0  0  0  0  0  0  0  0  0  0  0  0
  -42.7170   16.8590  -31.7420 C   0  0  0  0  0  0  0  0  0  0  0  0
  -41.4850   16.2600  -31.5560 N   0  0  0  0  0  0  0  0  0  0  0  0
  -41.0190   16.6370  -30.7390 H   0  0  0  0  0  0  0  0  0  0  0  0
  -41.4780   15.2520  -31.6050 H   0  0  0  0  0  0  0  0  0  0  0  0
  -46.6350   18.3040  -32.4240 C   0  0  0  0  0  0  0  0  0  0  0  0
  -47.5480   17.6010  -33.2790 C   0  0  0  0  0  0  0  0  0  0  0  0
  -48.8630   18.0630  -33.4860 C   0  0  0  0  0  3  0  0  0  0  0  0
  -49.3180   19.2300  -32.8580 C   0  0  0  0  0  3  0  0  0  0  0  0
  -48.4490   19.9460  -32.0250 C   0  0  0  0  0  3  0  0  0  0  0  0
  -47.1350   19.4870  -31.8190 C   0  0  0  0  0  3  0  0  0  0  0  0
  -47.2190   16.4500  -33.9400 O   0  0  0  0  0  0  0  0  0  0  0  0
  -46.3080   16.2090  -33.7630 H   0  0  0  0  0  0  0  0  0  0  0  0
  1  2  1  0
  2  3  2  0
  3  9  1  0
  4  6  2  0
  5  4  1  0
  5  1  2  0
  6  3  1  0
  7 12  1  0
  7 10  1  0
  8 10  2  0
  9 11  1  0
  9  7  2  0
 11  8  1  0
 13  5  1  0
 14 15  2  0
 14 16  1  0
 16 13  1  0
 17 16  1  0
 18 22  2  0
 18 21  1  0
 19 23  1  0
 19 14  1  0
 20 21  1  0
 20 24  1  0
 21 19  1  0
 24 25  1  0
 24 23  1  0
 26 25  1  0
 27 39  1  0
 27 18  1  0
 28 31  1  0
 28 27  1  0
 29 28  1  0
 30 29  2  0
 32 33  1  1
 32 29  1  0
 34 35  1  0
 34 32  1  0
 35 32  1  0
 39 37  1  6
 39 38  1  0
 39 36  1  0
 40  1  1  0
 41 40  1  0
 42 47  1  0
 42 51  1  0
 43 42  1  0
 44 45  1  0
 44 43  1  0
 45 46  1  0
 46 47  1  0
 48 50  1  0
 49 48  2  0
 50 58  1  0
 51 57  1  0
 52 55  1  0
 53 52  1  0
 54 55  1  0
 55 41  1  0
 56 51  2  0
 56 49  1  0
 57 50  2  0
 58 53  1  0
 58 54  1  0
 59 45  1  0
 60 59  1  0
 61 60  2  0
 62 63  2  0
 62 61  1  0
 63 64  1  0
 64 65  1  0
 64 59  2  0
 65 66  1  0
 67 65  1  0
 68 61  1  0
 68 73  1  0
 69 68  2  0
 70 69  1  0
 70 71  2  0
 71 72  1  0
 72 73  2  0
 74 75  1  0
 74 69  1  0
M  ISO  4  40 101  41 101  42 100  51 100
M  END
>  <TORSDO>  (24) 
F 15

>  <SCORE>  (24) 
-15.100

>  <name>  (24) 
23

>  <ligand_id>  (24) 
23

>  <original_smiles>  (24) 
[H]Oc1c([H])c([H])c([H])c([H])c1-c1nnc(N([H])[H])c(N2C([H])([H])C([H])([H])N(c3nc([H])c([H])c(N4C([H])([H])C([H])([H])C([H])(C([H])([H])Oc5c([H])c(-c6sc([H])nc6C([H])([H])[H])c([H])c([H])c5C([H])([H])N([H])C(=O)C5([H])N(C(=O)C([H])(N([H])C(=O)C6(F)C([H])([H])C6([H])[H])C(C([H])([H])[H])(C([H])([H])[H])C([H])([H])[H])C([H])([H])C([H])(O[H])C5([H])[H])C4([H])[H])n3)C([H])([H])C2([H])[H])c1[H]

>  <smiles>  (24) 
[H]Oc1c([H])c([H])c([H])c([H])c1-c1nnc(N([H])[H])c(N2C([H])([H])C([H])([H])N(c3nc([H])c([H])c(N4C([H])([H])C([H])([H])C([H])(C([H])([H])Oc5c([H])c(-c6sc([H])nc6C([H])([H])[H])c([H])c([H])c5C([H])([H])N([H])C(=O)C5([H])N(C(=O)C([H])(N([H])C(=O)C6(F)C([H])([H])C6([H])[H])C(C([H])([H])[H])(C([H])([H])[H])C([H])([H])[H])C([H])([H])C([H])(O[H])C5([H])[H])C4([H])[H])n3)C([H])([H])C2([H])[H])c1[H]

$$$$
24:0:0
     RDKit          3D

 76 84  0  0  1  0  0  0  0  0999 V2000
  -37.3770   13.4960  -23.7060 C   0  0  0  0  0  0  0  0  0  0  0  0
  -36.6990   13.4000  -22.4670 C   0  0  0  0  0  3  0  0  0  0  0  0
  -35.4250   12.8090  -22.3720 C   0  0  0  0  0  0  0  0  0  0  0  0
  -35.5350   12.3150  -24.7660 C   0  0  0  0  0  3  0  0  0  0  0  0
  -36.8170   12.9020  -24.8570 C   0  0  0  0  0  0  0  0  0  0  0  0
  -34.8400   12.2910  -23.5430 C   0  0  0  0  0  3  0  0  0  0  0  0
  -35.2040   12.2960  -19.8580 C   0  0  0  0  0  0  0  0  0  0  0  0
  -33.0440   12.7140  -19.3140 C   0  0  0  0  0  3  0  0  0  0  0  0
  -34.7340   12.7190  -21.0860 C   0  0  0  0  0  0  0  0  0  0  0  0
  -34.2260   12.2930  -18.8600 N   0  0  0  0  0  0  0  0  0  0  0  0
  -33.0460   13.1700  -21.0060 S   0  0  0  0  0  0  0  0  0  0  0  0
  -36.5790   11.8230  -19.4990 C   0  0  0  0  0  1  0  0  0  0  0  0
  -37.5930   12.9050  -26.1720 C   0  0  0  0  0  2  0  0  0  0  0  0
  -36.2070   13.6790  -28.0730 C   0  0  0  0  0  0  0  0  0  0  0  0
  -36.4640   14.8730  -27.9010 O   0  0  0  0  0  0  0  0  0  0  0  0
  -36.7540   12.7020  -27.3470 N   0  0  0  0  0  0  0  0  0  0  0  0
  -36.5100   11.7460  -27.5730 H   0  0  0  0  0  0  0  0  0  0  0  0
  -36.1460   14.4220  -31.0890 C   0  0  0  0  0  0  0  0  0  0  0  0
  -35.1640   13.2410  -29.1120 C   0  0  0  0  0  3  0  0  0  0  0  0
  -33.6890   14.4740  -30.5750 C   0  0  0  0  0  2  0  0  0  0  0  0
  -35.0850   14.1150  -30.2980 N   0  0  0  0  0  0  0  0  0  0  0  0
  -37.2700   13.9490  -30.8830 O   0  0  0  0  0  0  0  0  0  0  0  0
  -33.7640   13.2830  -28.4750 C   0  0  0  0  0  2  0  0  0  0  0  0
  -32.8360   13.6500  -29.6140 C   0  0  0  0  0  3  0  0  0  0  0  0
  -32.4000   12.4830  -30.2910 O   0  0  0  0  0  0  0  0  0  0  0  0
  -33.1670   12.0240  -30.6190 H   0  0  0  0  0  0  0  0  0  0  0  0
  -35.9600   15.3510  -32.3190 C   0  0  0  0  0  3  0  0  0  0  0  0
  -36.7100   14.7510  -33.4350 N   0  0  0  0  0  0  0  0  0  0  0  0
  -36.1940   14.2040  -34.5440 C   0  0  0  0  0  0  0  0  0  0  0  0
  -34.9830   14.2170  -34.7780 O   0  0  0  0  0  0  0  0  0  0  0  0
  -37.7060   14.6370  -33.3020 H   0  0  0  0  0  0  0  0  0  0  0  0
  -37.1870   13.5690  -35.4810 C   0  0  1  0  0  0  0  0  0  0  0  0
  -38.4620   13.4490  -34.9510 F   0  0  0  0  0  0  0  0  0  0  0  0
  -37.0840   13.8380  -36.9640 C   0  0  0  0  0  2  0  0  0  0  0  0
  -36.7350   12.4710  -36.4200 C   0  0  0  0  0  2  0  0  0  0  0  0
  -35.7420   17.4510  -30.8300 C   0  0  0  0  0  1  0  0  0  0  0  0
  -36.0130   17.6960  -33.2850 C   0  0  0  0  0  1  0  0  0  0  0  0
  -37.9540   16.9600  -31.8880 C   0  0  0  0  0  1  0  0  0  0  0  0
  -36.4260   16.8340  -32.0740 C   0  0  1  0  0  0  0  0  0  0  0  0
  -38.4950   14.2840  -23.8210 O   0  0  0  0  0  0  0  0  0  0  0  0
  -38.7460   16.1470  -22.2050 C   0  0  0  0  0  2  0  0  0  0  0  0
  -40.7670   18.6470  -25.2020 C   0  0  0  0  0  2  0  0  0  0  0  0
  -38.4520   17.6380  -22.2750 C   0  0  0  0  0  2  0  0  0  0  0  0
  -40.2560   18.4420  -23.7780 C   0  0  0  0  0  2  0  0  0  0  0  0
  -39.7280   16.3300  -25.4640 C   0  0  0  0  0  2  0  0  0  0  0  0
  -38.5320   16.7370  -24.5780 C   0  0  0  0  0  3  0  0  0  0  0  0
  -38.1630   15.6590  -23.5280 C   0  0  0  0  0  3  0  0  0  0  0  0
  -40.5200   17.4650  -26.2010 C   0  0  1  0  0  0  0  0  0  0  0  0
  -38.7750   18.0270  -23.7320 C   0  0  2  0  0  0  0  0  0  0  0  0
  -41.8620   16.7670  -26.5770 C   0  0  0  0  0  1  0  0  0  0  0  0
  -37.8610   19.1830  -24.1890 C   0  0  0  0  0  1  0  0  0  0  0  0
  -40.3440   18.9320  -28.3200 N   0  0  0  0  0  0  0  0  0  0  0  0
  -39.9000   19.2780  -29.6990 C   0  0  0  0  0  2  0  0  0  0  0  0
  -41.0910   19.3370  -30.7180 C   0  0  0  0  0  2  0  0  0  0  0  0
  -42.2510   18.5950  -30.2160 N   0  0  0  0  0  0  0  0  0  0  0  0
  -42.7380   18.9670  -28.8960 C   0  0  0  0  0  2  0  0  0  0  0  0
  -41.6180   19.5930  -28.0430 C   0  0  0  0  0  2  0  0  0  0  0  0
  -39.7840   17.9790  -27.5110 C   0  0  0  0  0  0  0  0  0  0  0  0
  -38.6940   17.4840  -27.8080 O   0  0  0  0  0  0  0  0  0  0  0  0
  -43.1680   18.0190  -31.1220 C   0  0  0  0  0  0  0  0  0  0  0  0
  -44.4720   18.5280  -31.3050 C   0  0  0  0  0  3  0  0  0  0  0  0
  -45.3550   17.8690  -32.2020 C   0  0  0  0  0  0  0  0  0  0  0  0
  -44.9260   16.7600  -32.8680 N   0  0  0  0  0  0  0  0  0  0  0  0
  -43.7010   16.2540  -32.6950 N   0  0  0  0  0  0  0  0  0  0  0  0
  -42.8410   16.8550  -31.8500 C   0  0  0  0  0  0  0  0  0  0  0  0
  -41.6160   16.2340  -31.6820 N   0  0  0  0  0  0  0  0  0  0  0  0
  -41.1370   16.5450  -30.8460 H   0  0  0  0  0  0  0  0  0  0  0  0
  -41.6080   15.2330  -31.8200 H   0  0  0  0  0  0  0  0  0  0  0  0
  -46.7660   18.3180  -32.4660 C   0  0  0  0  0  0  0  0  0  0  0  0
  -47.6970   17.6180  -33.3010 C   0  0  0  0  0  0  0  0  0  0  0  0
  -49.0120   18.0890  -33.4900 C   0  0  0  0  0  3  0  0  0  0  0  0
  -49.4480   19.2650  -32.8630 C   0  0  0  0  0  3  0  0  0  0  0  0
  -48.5600   19.9780  -32.0460 C   0  0  0  0  0  3  0  0  0  0  0  0
  -47.2470   19.5100  -31.8560 C   0  0  0  0  0  3  0  0  0  0  0  0
  -47.3840   16.4650  -33.9630 O   0  0  0  0  0  0  0  0  0  0  0  0
  -46.4700   16.2280  -33.7970 H   0  0  0  0  0  0  0  0  0  0  0  0
  1  2  1  0
  2  3  2  0
  3  9  1  0
  4  6  2  0
  5  4  1  0
  5  1  2  0
  6  3  1  0
  7 12  1  0
  7 10  1  0
  8 10  2  0
  9 11  1  0
  9  7  2  0
 11  8  1  0
 13  5  1  0
 14 15  2  0
 14 16  1  0
 16 13  1  0
 17 16  1  0
 18 22  2  0
 18 21  1  0
 19 23  1  0
 19 14  1  0
 20 21  1  0
 20 24  1  0
 21 19  1  0
 24 25  1  0
 24 23  1  0
 26 25  1  0
 27 39  1  0
 27 18  1  0
 28 31  1  0
 28 27  1  0
 29 28  1  0
 30 29  2  0
 32 33  1  1
 32 29  1  0
 34 35  1  0
 34 32  1  0
 35 32  1  0
 39 37  1  6
 39 38  1  0
 39 36  1  0
 40  1  1  0
 42 44  1  0
 43 41  1  0
 44 49  1  0
 46 45  1  0
 46 49  1  0
 46 47  1  0
 47 40  1  0
 47 41  1  0
 48 50  1  6
 48 45  1  0
 48 42  1  0
 49 51  1  6
 49 43  1  0
 52 57  1  0
 52 58  1  0
 53 52  1  0
 54 55  1  0
 54 53  1  0
 55 56  1  0
 56 57  1  0
 58 48  1  0
 59 58  2  0
 60 55  1  0
 61 60  1  0
 62 61  2  0
 63 64  2  0
 63 62  1  0
 64 65  1  0
 65 66  1  0
 65 60  2  0
 66 67  1  0
 68 66  1  0
 69 62  1  0
 69 74  1  0
 70 69  2  0
 71 70  1  0
 71 72  2  0
 72 73  1  0
 73 74  2  0
 75 76  1  0
 75 70  1  0
M  ISO  4  40 101  47 101  52 100  58 100
M  END
>  <TORSDO>  (25) 
F 15

>  <SCORE>  (25) 
-15.074

>  <name>  (25) 
24

>  <ligand_id>  (25) 
24

>  <original_smiles>  (25) 
[H]Oc1c([H])c([H])c([H])c([H])c1-c1nnc(N([H])[H])c(N2C([H])([H])C([H])([H])N(C(=O)C3(C([H])([H])[H])C([H])([H])C([H])([H])C4(C([H])([H])[H])C([H])([H])C([H])([H])C([H])(Oc5c([H])c(-c6sc([H])nc6C([H])([H])[H])c([H])c([H])c5C([H])([H])N([H])C(=O)C5([H])N(C(=O)C([H])(N([H])C(=O)C6(F)C([H])([H])C6([H])[H])C(C([H])([H])[H])(C([H])([H])[H])C([H])([H])[H])C([H])([H])C([H])(O[H])C5([H])[H])C4([H])C3([H])[H])C([H])([H])C2([H])[H])c1[H]

>  <smiles>  (25) 
[H]Oc1c([H])c([H])c([H])c([H])c1-c1nnc(N([H])[H])c(N2C([H])([H])C([H])([H])N(C(=O)C3(C([H])([H])[H])C([H])([H])C([H])([H])C4(C([H])([H])[H])C([H])([H])C([H])([H])C([H])(Oc5c([H])c(-c6sc([H])nc6C([H])([H])[H])c([H])c([H])c5C([H])([H])N([H])C(=O)C5([H])N(C(=O)C([H])(N([H])C(=O)C6(F)C([H])([H])C6([H])[H])C(C([H])([H])[H])(C([H])([H])[H])C([H])([H])[H])C([H])([H])C([H])(O[H])C5([H])[H])C4([H])C3([H])[H])C([H])([H])C2([H])[H])c1[H]

$$$$
25:0:0
     RDKit          3D

 76 84  0  0  1  0  0  0  0  0999 V2000
  -37.4000   13.4530  -23.7110 C   0  0  0  0  0  0  0  0  0  0  0  0
  -36.7050   13.3330  -22.4810 C   0  0  0  0  0  3  0  0  0  0  0  0
  -35.4300   12.7550  -22.4000 C   0  0  0  0  0  0  0  0  0  0  0  0
  -35.5240   12.3410  -24.8050 C   0  0  0  0  0  3  0  0  0  0  0  0
  -36.8120   12.9220  -24.8800 C   0  0  0  0  0  0  0  0  0  0  0  0
  -34.8360   12.2760  -23.5820 C   0  0  0  0  0  3  0  0  0  0  0  0
  -35.2420   12.2010  -19.8930 C   0  0  0  0  0  0  0  0  0  0  0  0
  -33.0840   12.5910  -19.3260 C   0  0  0  0  0  3  0  0  0  0  0  0
  -34.7530   12.6280  -21.1120 C   0  0  0  0  0  0  0  0  0  0  0  0
  -34.2740   12.1800  -18.8860 N   0  0  0  0  0  0  0  0  0  0  0  0
  -33.0620   13.0550  -21.0140 S   0  0  0  0  0  0  0  0  0  0  0  0
  -36.6290   11.7540  -19.5500 C   0  0  0  0  0  1  0  0  0  0  0  0
  -37.5900   12.9380  -26.1960 C   0  0  0  0  0  2  0  0  0  0  0  0
  -36.2100   13.7190  -28.1060 C   0  0  0  0  0  0  0  0  0  0  0  0
  -36.4790   14.9110  -27.9390 O   0  0  0  0  0  0  0  0  0  0  0  0
  -36.7540   12.7410  -27.3750 N   0  0  0  0  0  0  0  0  0  0  0  0
  -36.4940   11.7890  -27.5940 H   0  0  0  0  0  0  0  0  0  0  0  0
  -36.1430   14.4450  -31.1270 C   0  0  0  0  0  0  0  0  0  0  0  0
  -35.1580   13.2850  -29.1400 C   0  0  0  0  0  3  0  0  0  0  0  0
  -33.6870   14.5270  -30.6020 C   0  0  0  0  0  2  0  0  0  0  0  0
  -35.0820   14.1540  -30.3300 N   0  0  0  0  0  0  0  0  0  0  0  0
  -37.2610   13.9580  -30.9220 O   0  0  0  0  0  0  0  0  0  0  0  0
  -33.7610   13.3360  -28.5000 C   0  0  0  0  0  2  0  0  0  0  0  0
  -32.8310   13.7130  -29.6350 C   0  0  0  0  0  3  0  0  0  0  0  0
  -32.3750   12.5520  -30.3100 O   0  0  0  0  0  0  0  0  0  0  0  0
  -33.1320   12.0610  -30.6140 H   0  0  0  0  0  0  0  0  0  0  0  0
  -35.9660   15.3710  -32.3590 C   0  0  0  0  0  3  0  0  0  0  0  0
  -36.7220   14.7680  -33.4700 N   0  0  0  0  0  0  0  0  0  0  0  0
  -36.2150   14.2310  -34.5880 C   0  0  0  0  0  0  0  0  0  0  0  0
  -35.0050   14.2590  -34.8380 O   0  0  0  0  0  0  0  0  0  0  0  0
  -37.7140   14.6430  -33.3260 H   0  0  0  0  0  0  0  0  0  0  0  0
  -37.2120   13.5900  -35.5160 C   0  0  1  0  0  0  0  0  0  0  0  0
  -38.4780   13.4490  -34.9710 F   0  0  0  0  0  0  0  0  0  0  0  0
  -37.1320   13.8720  -36.9980 C   0  0  0  0  0  2  0  0  0  0  0  0
  -36.7620   12.5040  -36.4700 C   0  0  0  0  0  2  0  0  0  0  0  0
  -35.7630   17.4650  -30.8610 C   0  0  0  0  0  1  0  0  0  0  0  0
  -36.0170   17.7160  -33.3240 C   0  0  0  0  0  1  0  0  0  0  0  0
  -37.9640   16.9780  -31.9380 C   0  0  0  0  0  1  0  0  0  0  0  0
  -36.4350   16.8510  -32.1140 C   0  0  1  0  0  0  0  0  0  0  0  0
  -38.6320   14.0640  -23.8130 O   0  0  0  0  0  0  0  0  0  0  0  0
  -37.8140   18.1090  -25.7330 C   0  0  0  0  0  3  0  0  0  0  0  0
  -37.8480   17.5570  -24.4350 C   0  0  0  0  0  3  0  0  0  0  0  0
  -38.9760   18.7400  -26.2400 C   0  0  0  0  0  0  0  0  0  0  0  0
  -39.0620   17.6520  -23.7120 C   0  0  0  0  0  0  0  0  0  0  0  0
  -40.6160   15.0820  -22.9200 C   0  0  0  0  0  2  0  0  0  0  0  0
  -40.6520   16.4710  -22.2860 C   0  0  0  0  0  2  0  0  0  0  0  0
  -38.4650   15.8700  -22.1170 C   0  0  0  0  0  2  0  0  0  0  0  0
  -39.2010   14.6020  -22.6200 C   0  0  0  0  0  3  0  0  0  0  0  0
  -40.0420   18.9340  -25.4230 N   0  0  0  0  0  0  0  0  0  0  0  0
  -40.0900   18.3850  -24.2080 N   0  0  0  0  0  0  0  0  0  0  0  0
  -39.3030   17.0080  -22.4740 N   0  0  0  0  0  0  0  0  0  0  0  0
  -40.1260   19.2730  -28.4320 N   0  0  0  0  0  0  0  0  0  0  0  0
  -39.9440   19.4570  -29.8860 C   0  0  0  0  0  2  0  0  0  0  0  0
  -41.2200   19.4660  -30.7510 C   0  0  0  0  0  2  0  0  0  0  0  0
  -42.2280   18.5910  -30.1810 N   0  0  0  0  0  0  0  0  0  0  0  0
  -42.6690   18.9780  -28.8570 C   0  0  0  0  0  2  0  0  0  0  0  0
  -41.5060   19.3190  -27.9000 C   0  0  0  0  0  2  0  0  0  0  0  0
  -38.9820   19.2430  -27.6780 C   0  0  0  0  0  0  0  0  0  0  0  0
  -37.8800   19.5070  -28.1830 O   0  0  0  0  0  0  0  0  0  0  0  0
  -43.1670   18.0210  -31.0720 C   0  0  0  0  0  0  0  0  0  0  0  0
  -44.4760   18.5250  -31.2620 C   0  0  0  0  0  3  0  0  0  0  0  0
  -45.3450   17.8660  -32.1750 C   0  0  0  0  0  0  0  0  0  0  0  0
  -44.9080   16.7580  -32.8360 N   0  0  0  0  0  0  0  0  0  0  0  0
  -43.6860   16.2500  -32.6500 N   0  0  0  0  0  0  0  0  0  0  0  0
  -42.8350   16.8600  -31.8020 C   0  0  0  0  0  0  0  0  0  0  0  0
  -41.6080   16.2490  -31.6210 N   0  0  0  0  0  0  0  0  0  0  0  0
  -41.1620   16.5760  -30.7730 H   0  0  0  0  0  0  0  0  0  0  0  0
  -41.6120   15.2440  -31.7250 H   0  0  0  0  0  0  0  0  0  0  0  0
  -46.7560   18.3060  -32.4660 C   0  0  0  0  0  0  0  0  0  0  0  0
  -47.6670   17.5990  -33.3170 C   0  0  0  0  0  0  0  0  0  0  0  0
  -48.9830   18.0630  -33.5260 C   0  0  0  0  0  3  0  0  0  0  0  0
  -49.4340   19.2370  -32.9060 C   0  0  0  0  0  3  0  0  0  0  0  0
  -48.5640   19.9540  -32.0750 C   0  0  0  0  0  3  0  0  0  0  0  0
  -47.2500   19.4940  -31.8650 C   0  0  0  0  0  3  0  0  0  0  0  0
  -47.3410   16.4470  -33.9740 O   0  0  0  0  0  0  0  0  0  0  0  0
  -46.4290   16.2130  -33.7990 H   0  0  0  0  0  0  0  0  0  0  0  0
  1  2  1  0
  2  3  2  0
  3  9  1  0
  4  6  2  0
  5  4  1  0
  5  1  2  0
  6  3  1  0
  7 12  1  0
  7 10  1  0
  8 10  2  0
  9 11  1  0
  9  7  2  0
 11  8  1  0
 13  5  1  0
 14 15  2  0
 14 16  1  0
 16 13  1  0
 17 16  1  0
 18 22  2  0
 18 21  1  0
 19 23  1  0
 19 14  1  0
 20 21  1  0
 20 24  1  0
 21 19  1  0
 24 25  1  0
 24 23  1  0
 26 25  1  0
 27 39  1  0
 27 18  1  0
 28 31  1  0
 28 27  1  0
 29 28  1  0
 30 29  2  0
 32 33  1  1
 32 29  1  0
 34 35  1  0
 34 32  1  0
 35 32  1  0
 39 37  1  6
 39 38  1  0
 39 36  1  0
 40  1  1  0
 41 42  1  0
 42 44  2  0
 43 41  2  0
 43 49  1  0
 44 51  1  0
 45 48  1  0
 45 46  1  0
 48 40  1  0
 48 47  1  0
 49 50  2  0
 50 44  1  0
 51 46  1  0
 51 47  1  0
 52 57  1  0
 52 58  1  0
 53 52  1  0
 54 55  1  0
 54 53  1  0
 55 56  1  0
 56 57  1  0
 58 43  1  0
 59 58  2  0
 60 55  1  0
 61 60  1  0
 62 61  2  0
 63 64  2  0
 63 62  1  0
 64 65  1  0
 65 66  1  0
 65 60  2  0
 66 67  1  0
 68 66  1  0
 69 62  1  0
 69 74  1  0
 70 69  2  0
 71 70  1  0
 71 72  2  0
 72 73  1  0
 73 74  2  0
 75 76  1  0
 75 70  1  0
M  ISO  4  40 101  48 101  52 100  58 100
M  END
>  <TORSDO>  (26) 
F 15

>  <SCORE>  (26) 
-14.972

>  <name>  (26) 
25

>  <ligand_id>  (26) 
25

>  <original_smiles>  (26) 
[H]Oc1c([H])c([H])c([H])c([H])c1-c1nnc(N([H])[H])c(N2C([H])([H])C([H])([H])N(C(=O)c3nnc(N4C([H])([H])C([H])([H])C([H])(Oc5c([H])c(-c6sc([H])nc6C([H])([H])[H])c([H])c([H])c5C([H])([H])N([H])C(=O)C5([H])N(C(=O)C([H])(N([H])C(=O)C6(F)C([H])([H])C6([H])[H])C(C([H])([H])[H])(C([H])([H])[H])C([H])([H])[H])C([H])([H])C([H])(O[H])C5([H])[H])C4([H])[H])c([H])c3[H])C([H])([H])C2([H])[H])c1[H]

>  <smiles>  (26) 
[H]Oc1c([H])c([H])c([H])c([H])c1-c1nnc(N([H])[H])c(N2C([H])([H])C([H])([H])N(C(=O)c3nnc(N4C([H])([H])C([H])([H])C([H])(Oc5c([H])c(-c6sc([H])nc6C([H])([H])[H])c([H])c([H])c5C([H])([H])N([H])C(=O)C5([H])N(C(=O)C([H])(N([H])C(=O)C6(F)C([H])([H])C6([H])[H])C(C([H])([H])[H])(C([H])([H])[H])C([H])([H])[H])C([H])([H])C([H])(O[H])C5([H])[H])C4([H])[H])c([H])c3[H])C([H])([H])C2([H])[H])c1[H]

$$$$
26:0:0
     RDKit          3D

 75 83  0  0  1  0  0  0  0  0999 V2000
  -37.3840   13.4530  -23.7230 C   0  0  0  0  0  0  0  0  0  0  0  0
  -36.7090   13.3520  -22.4920 C   0  0  0  0  0  3  0  0  0  0  0  0
  -35.4530   12.7280  -22.4010 C   0  0  0  0  0  0  0  0  0  0  0  0
  -35.5550   12.2770  -24.8080 C   0  0  0  0  0  3  0  0  0  0  0  0
  -36.8260   12.8910  -24.8940 C   0  0  0  0  0  0  0  0  0  0  0  0
  -34.8760   12.2080  -23.5780 C   0  0  0  0  0  3  0  0  0  0  0  0
  -35.2720   12.1620  -19.8990 C   0  0  0  0  0  0  0  0  0  0  0  0
  -33.1080   12.5050  -19.3250 C   0  0  0  0  0  3  0  0  0  0  0  0
  -34.7770   12.5950  -21.1130 C   0  0  0  0  0  0  0  0  0  0  0  0
  -34.3060   12.1130  -18.8930 N   0  0  0  0  0  0  0  0  0  0  0  0
  -33.0760   12.9910  -21.0100 S   0  0  0  0  0  0  0  0  0  0  0  0
  -36.6650   11.7250  -19.5610 C   0  0  0  0  0  1  0  0  0  0  0  0
  -37.5800   12.9560  -26.2220 C   0  0  0  0  0  2  0  0  0  0  0  0
  -36.1870   13.7170  -28.1290 C   0  0  0  0  0  0  0  0  0  0  0  0
  -36.4380   14.9140  -27.9700 O   0  0  0  0  0  0  0  0  0  0  0  0
  -36.7360   12.7480  -27.3900 N   0  0  0  0  0  0  0  0  0  0  0  0
  -36.4890   11.7910  -27.6050 H   0  0  0  0  0  0  0  0  0  0  0  0
  -36.1190   14.4250  -31.1550 C   0  0  0  0  0  0  0  0  0  0  0  0
  -35.1470   13.2620  -29.1650 C   0  0  0  0  0  3  0  0  0  0  0  0
  -33.6630   14.4630  -30.6460 C   0  0  0  0  0  2  0  0  0  0  0  0
  -35.0610   14.1200  -30.3610 N   0  0  0  0  0  0  0  0  0  0  0  0
  -37.2450   13.9610  -30.9420 O   0  0  0  0  0  0  0  0  0  0  0  0
  -33.7480   13.2990  -28.5290 C   0  0  0  0  0  2  0  0  0  0  0  0
  -32.8140   13.6520  -29.6690 C   0  0  0  0  0  3  0  0  0  0  0  0
  -32.3700   12.4760  -30.3290 O   0  0  0  0  0  0  0  0  0  0  0  0
  -33.1300   12.0020  -30.6520 H   0  0  0  0  0  0  0  0  0  0  0  0
  -35.9290   15.3380  -32.3940 C   0  0  0  0  0  3  0  0  0  0  0  0
  -36.6950   14.7390  -33.5000 N   0  0  0  0  0  0  0  0  0  0  0  0
  -36.1920   14.1920  -34.6170 C   0  0  0  0  0  0  0  0  0  0  0  0
  -34.9840   14.2100  -34.8680 O   0  0  0  0  0  0  0  0  0  0  0  0
  -37.6870   14.6240  -33.3530 H   0  0  0  0  0  0  0  0  0  0  0  0
  -37.1930   13.5520  -35.5410 C   0  0  1  0  0  0  0  0  0  0  0  0
  -38.4570   13.4100  -34.9880 F   0  0  0  0  0  0  0  0  0  0  0  0
  -37.1250   13.8260  -37.0260 C   0  0  0  0  0  2  0  0  0  0  0  0
  -36.7450   12.4640  -36.4940 C   0  0  0  0  0  2  0  0  0  0  0  0
  -35.7040   17.4380  -30.9030 C   0  0  0  0  0  1  0  0  0  0  0  0
  -35.9320   17.6820  -33.3640 C   0  0  0  0  0  1  0  0  0  0  0  0
  -37.9030   16.9800  -31.9900 C   0  0  0  0  0  1  0  0  0  0  0  0
  -36.3760   16.8290  -32.1570 C   0  0  1  0  0  0  0  0  0  0  0  0
  -38.4850   14.2540  -23.7960 O   0  0  0  0  0  0  0  0  0  0  0  0
  -37.9020   20.1390  -27.6110 C   0  0  0  0  0  3  0  0  0  0  0  0
  -39.1370   19.4570  -27.4800 C   0  0  0  0  0  0  0  0  0  0  0  0
  -38.4530   18.7250  -25.4360 C   0  0  0  0  0  0  0  0  0  0  0  0
  -38.7310   16.4460  -24.8190 C   0  0  0  0  0  0  0  0  0  0  0  0
  -38.1230   16.4400  -22.5260 C   0  0  0  0  0  2  0  0  0  0  0  0
  -38.1740   17.8760  -23.0860 C   0  0  0  0  0  2  0  0  0  0  0  0
  -38.0160   15.6080  -23.8010 C   0  0  0  0  0  3  0  0  0  0  0  0
  -37.0050   20.1160  -26.5900 N   0  0  0  0  0  0  0  0  0  0  0  0
  -39.4140   18.7920  -26.3520 N   0  0  0  0  0  0  0  0  0  0  0  0
  -37.2760   19.3800  -25.4970 N   0  0  0  0  0  0  0  0  0  0  0  0
  -38.5980   17.7400  -24.4890 N   0  0  0  0  0  0  0  0  0  0  0  0
  -39.3290   15.9550  -25.7850 O   0  0  0  0  0  0  0  0  0  0  0  0
  -40.1290   19.3370  -28.4640 N   0  0  0  0  0  0  0  0  0  0  0  0
  -39.8300   19.6330  -29.8670 C   0  0  0  0  0  2  0  0  0  0  0  0
  -41.0830   19.5030  -30.7870 C   0  0  0  0  0  2  0  0  0  0  0  0
  -42.1250   18.6530  -30.2040 N   0  0  0  0  0  0  0  0  0  0  0  0
  -42.5550   18.9190  -28.8330 C   0  0  0  0  0  2  0  0  0  0  0  0
  -41.4840   19.6630  -28.0150 C   0  0  0  0  0  2  0  0  0  0  0  0
  -43.0480   18.0490  -31.0830 C   0  0  0  0  0  0  0  0  0  0  0  0
  -44.3570   18.5390  -31.2790 C   0  0  0  0  0  3  0  0  0  0  0  0
  -45.2240   17.8530  -32.1700 C   0  0  0  0  0  0  0  0  0  0  0  0
  -44.7790   16.7370  -32.8140 N   0  0  0  0  0  0  0  0  0  0  0  0
  -43.5460   16.2520  -32.6310 N   0  0  0  0  0  0  0  0  0  0  0  0
  -42.6970   16.8820  -31.7960 C   0  0  0  0  0  0  0  0  0  0  0  0
  -41.4500   16.3070  -31.6280 N   0  0  0  0  0  0  0  0  0  0  0  0
  -40.9650   16.6780  -30.8190 H   0  0  0  0  0  0  0  0  0  0  0  0
  -41.3830   15.3070  -31.7460 H   0  0  0  0  0  0  0  0  0  0  0  0
  -46.6410   18.2780  -32.4490 C   0  0  0  0  0  0  0  0  0  0  0  0
  -47.5510   17.5640  -33.2950 C   0  0  0  0  0  0  0  0  0  0  0  0
  -48.8730   18.0110  -33.4940 C   0  0  0  0  0  3  0  0  0  0  0  0
  -49.3370   19.1750  -32.8670 C   0  0  0  0  0  3  0  0  0  0  0  0
  -48.4690   19.9020  -32.0400 C   0  0  0  0  0  3  0  0  0  0  0  0
  -47.1490   19.4580  -31.8400 C   0  0  0  0  0  3  0  0  0  0  0  0
  -47.2110   16.4170  -33.9550 O   0  0  0  0  0  0  0  0  0  0  0  0
  -46.2960   16.1920  -33.7810 H   0  0  0  0  0  0  0  0  0  0  0  0
  1  2  1  0
  2  3  2  0
  3  9  1  0
  4  6  2  0
  5  4  1  0
  5  1  2  0
  6  3  1  0
  7 12  1  0
  7 10  1  0
  8 10  2  0
  9 11  1  0
  9  7  2  0
 11  8  1  0
 13  5  1  0
 14 15  2  0
 14 16  1  0
 16 13  1  0
 17 16  1  0
 18 22  2  0
 18 21  1  0
 19 23  1  0
 19 14  1  0
 20 21  1  0
 20 24  1  0
 21 19  1  0
 24 25  1  0
 24 23  1  0
 26 25  1  0
 27 39  1  0
 27 18  1  0
 28 31  1  0
 28 27  1  0
 29 28  1  0
 30 29  2  0
 32 33  1  1
 32 29  1  0
 34 35  1  0
 34 32  1  0
 35 32  1  0
 39 37  1  6
 39 38  1  0
 39 36  1  0
 40  1  1  0
 41 42  2  0
 41 48  1  0
 42 49  1  0
 43 51  1  0
 44 51  1  0
 44 47  1  0
 46 45  1  0
 47 40  1  0
 47 45  1  0
 48 50  2  0
 49 43  2  0
 50 43  1  0
 51 46  1  0
 52 44  2  0
 53 58  1  0
 53 42  1  0
 54 53  1  0
 55 56  1  0
 55 54  1  0
 56 57  1  0
 57 58  1  0
 59 56  1  0
 60 59  1  0
 61 60  2  0
 62 63  2  0
 62 61  1  0
 63 64  1  0
 64 65  1  0
 64 59  2  0
 65 66  1  0
 67 65  1  0
 68 61  1  0
 68 73  1  0
 69 68  2  0
 70 69  1  0
 70 71  2  0
 71 72  1  0
 72 73  2  0
 74 75  1  0
 74 69  1  0
M  ISO  4  40 101  42 100  47 101  53 100
M  END
>  <TORSDO>  (27) 
F 15

>  <SCORE>  (27) 
-14.951

>  <name>  (27) 
26

>  <ligand_id>  (27) 
26

>  <original_smiles>  (27) 
[H]Oc1c([H])c([H])c([H])c([H])c1-c1nnc(N([H])[H])c(N2C([H])([H])C([H])([H])N(c3nc(N4C(=O)C([H])(Oc5c([H])c(-c6sc([H])nc6C([H])([H])[H])c([H])c([H])c5C([H])([H])N([H])C(=O)C5([H])N(C(=O)C([H])(N([H])C(=O)C6(F)C([H])([H])C6([H])[H])C(C([H])([H])[H])(C([H])([H])[H])C([H])([H])[H])C([H])([H])C([H])(O[H])C5([H])[H])C([H])([H])C4([H])[H])nnc3[H])C([H])([H])C2([H])[H])c1[H]

>  <smiles>  (27) 
[H]Oc1c([H])c([H])c([H])c([H])c1-c1nnc(N([H])[H])c(N2C([H])([H])C([H])([H])N(c3nc(N4C(=O)C([H])(Oc5c([H])c(-c6sc([H])nc6C([H])([H])[H])c([H])c([H])c5C([H])([H])N([H])C(=O)C5([H])N(C(=O)C([H])(N([H])C(=O)C6(F)C([H])([H])C6([H])[H])C(C([H])([H])[H])(C([H])([H])[H])C([H])([H])[H])C([H])([H])C([H])(O[H])C5([H])[H])C([H])([H])C4([H])[H])nnc3[H])C([H])([H])C2([H])[H])c1[H]

$$$$
27:0:0
     RDKit          3D

 77 85  0  0  1  0  0  0  0  0999 V2000
  -37.3800   13.4910  -23.7060 C   0  0  0  0  0  0  0  0  0  0  0  0
  -36.6750   13.4170  -22.4770 C   0  0  0  0  0  3  0  0  0  0  0  0
  -35.4220   12.7720  -22.3910 C   0  0  0  0  0  0  0  0  0  0  0  0
  -35.5390   12.3040  -24.7870 C   0  0  0  0  0  3  0  0  0  0  0  0
  -36.8050   12.9260  -24.8680 C   0  0  0  0  0  0  0  0  0  0  0  0
  -34.8570   12.2300  -23.5630 C   0  0  0  0  0  3  0  0  0  0  0  0
  -35.2090   12.1700  -19.8930 C   0  0  0  0  0  0  0  0  0  0  0  0
  -33.0380   12.5080  -19.3420 C   0  0  0  0  0  3  0  0  0  0  0  0
  -34.7320   12.6190  -21.1080 C   0  0  0  0  0  0  0  0  0  0  0  0
  -34.2310   12.1120  -18.8970 N   0  0  0  0  0  0  0  0  0  0  0  0
  -33.0270   13.0050  -21.0230 S   0  0  0  0  0  0  0  0  0  0  0  0
  -36.5970   11.7280  -19.5420 C   0  0  0  0  0  1  0  0  0  0  0  0
  -37.5830   12.9540  -26.1850 C   0  0  0  0  0  2  0  0  0  0  0  0
  -36.2100   13.7090  -28.1020 C   0  0  0  0  0  0  0  0  0  0  0  0
  -36.4640   14.9040  -27.9380 O   0  0  0  0  0  0  0  0  0  0  0  0
  -36.7540   12.7380  -27.3650 N   0  0  0  0  0  0  0  0  0  0  0  0
  -36.5160   11.7800  -27.5850 H   0  0  0  0  0  0  0  0  0  0  0  0
  -36.1630   14.4430  -31.1220 C   0  0  0  0  0  0  0  0  0  0  0  0
  -35.1750   13.2620  -29.1480 C   0  0  0  0  0  3  0  0  0  0  0  0
  -33.7030   14.4840  -30.6240 C   0  0  0  0  0  2  0  0  0  0  0  0
  -35.1000   14.1330  -30.3360 N   0  0  0  0  0  0  0  0  0  0  0  0
  -37.2890   13.9780  -30.9070 O   0  0  0  0  0  0  0  0  0  0  0  0
  -33.7720   13.2980  -28.5200 C   0  0  0  0  0  2  0  0  0  0  0  0
  -32.8480   13.6570  -29.6650 C   0  0  0  0  0  3  0  0  0  0  0  0
  -32.4220   12.4860  -30.3430 O   0  0  0  0  0  0  0  0  0  0  0  0
  -33.1920   12.0210  -30.6550 H   0  0  0  0  0  0  0  0  0  0  0  0
  -35.9800   15.3670  -32.3560 C   0  0  0  0  0  3  0  0  0  0  0  0
  -36.7280   14.7600  -33.4700 N   0  0  0  0  0  0  0  0  0  0  0  0
  -36.2100   14.2260  -34.5840 C   0  0  0  0  0  0  0  0  0  0  0  0
  -35.0010   14.2610  -34.8280 O   0  0  0  0  0  0  0  0  0  0  0  0
  -37.7210   14.6320  -33.3310 H   0  0  0  0  0  0  0  0  0  0  0  0
  -37.1980   13.5810  -35.5190 C   0  0  1  0  0  0  0  0  0  0  0  0
  -38.4650   13.4300  -34.9780 F   0  0  0  0  0  0  0  0  0  0  0  0
  -37.1160   13.8680  -37.0010 C   0  0  0  0  0  2  0  0  0  0  0  0
  -36.7360   12.5020  -36.4740 C   0  0  0  0  0  2  0  0  0  0  0  0
  -35.7990   17.4660  -30.8570 C   0  0  0  0  0  1  0  0  0  0  0  0
  -36.0130   17.7140  -33.3170 C   0  0  0  0  0  1  0  0  0  0  0  0
  -37.9830   16.9700  -31.9650 C   0  0  0  0  0  1  0  0  0  0  0  0
  -36.4510   16.8480  -32.1170 C   0  0  1  0  0  0  0  0  0  0  0  0
  -38.6260   14.0620  -23.8540 O   0  0  0  0  0  0  0  0  0  0  0  0
  -39.2190   18.8590  -26.2130 C   0  0  0  0  0  0  0  0  0  0  0  0
  -38.6570   19.8590  -24.3100 C   0  0  0  0  0  0  0  0  0  0  0  0
  -39.5430   17.8400  -24.2800 C   0  0  0  0  0  0  0  0  0  0  0  0
  -40.8080   14.5780  -23.1040 C   0  0  0  0  0  2  0  0  0  0  0  0
  -40.9350   15.7790  -24.0370 C   0  0  0  0  0  2  0  0  0  0  0  0
  -39.0290   16.0940  -22.6260 C   0  0  0  0  0  2  0  0  0  0  0  0
  -39.3270   14.5960  -22.7350 C   0  0  0  0  0  3  0  0  0  0  0  0
  -38.0890   21.0500  -23.5690 C   0  0  0  0  0  1  0  0  0  0  0  0
  -38.7080   19.9450  -25.6290 N   0  0  0  0  0  4  0  0  0  0  0  0
  -39.6830   17.7770  -25.5890 N   0  0  0  0  0  0  0  0  0  0  0  0
  -39.0330   18.8280  -23.5700 N   0  0  0  0  0  2  0  0  0  0  0  0
  -39.9590   16.7480  -23.5480 N   0  0  0  0  0  0  0  0  0  0  0  0
  -40.1120   19.1700  -28.5140 N   0  0  0  0  0  0  0  0  0  0  0  0
  -39.8790   19.3640  -29.9570 C   0  0  0  0  0  2  0  0  0  0  0  0
  -41.1630   19.4400  -30.8100 C   0  0  0  0  0  2  0  0  0  0  0  0
  -42.2100   18.6080  -30.2320 N   0  0  0  0  0  0  0  0  0  0  0  0
  -42.5830   18.8620  -28.8420 C   0  0  0  0  0  2  0  0  0  0  0  0
  -41.4530   19.5650  -28.0470 C   0  0  0  0  0  2  0  0  0  0  0  0
  -39.0750   18.7860  -27.7290 C   0  0  0  0  0  0  0  0  0  0  0  0
  -37.9720   18.4460  -28.1810 O   0  0  0  0  0  0  0  0  0  0  0  0
  -43.1500   18.0230  -31.1110 C   0  0  0  0  0  0  0  0  0  0  0  0
  -44.4540   18.5310  -31.2870 C   0  0  0  0  0  3  0  0  0  0  0  0
  -45.3420   17.8670  -32.1790 C   0  0  0  0  0  0  0  0  0  0  0  0
  -44.9150   16.7570  -32.8460 N   0  0  0  0  0  0  0  0  0  0  0  0
  -43.6880   16.2550  -32.6820 N   0  0  0  0  0  0  0  0  0  0  0  0
  -42.8230   16.8630  -31.8460 C   0  0  0  0  0  0  0  0  0  0  0  0
  -41.5870   16.2590  -31.6980 N   0  0  0  0  0  0  0  0  0  0  0  0
  -41.0990   16.5860  -30.8740 H   0  0  0  0  0  0  0  0  0  0  0  0
  -41.5630   15.2590  -31.8310 H   0  0  0  0  0  0  0  0  0  0  0  0
  -46.7570   18.3090  -32.4360 C   0  0  0  0  0  0  0  0  0  0  0  0
  -47.6910   17.6020  -33.2620 C   0  0  0  0  0  0  0  0  0  0  0  0
  -49.0100   18.0680  -33.4390 C   0  0  0  0  0  3  0  0  0  0  0  0
  -49.4460   19.2430  -32.8110 C   0  0  0  0  0  3  0  0  0  0  0  0
  -48.5530   19.9610  -32.0050 C   0  0  0  0  0  3  0  0  0  0  0  0
  -47.2360   19.5000  -31.8270 C   0  0  0  0  0  3  0  0  0  0  0  0
  -47.3800   16.4470  -33.9230 O   0  0  0  0  0  0  0  0  0  0  0  0
  -46.4660   16.2090  -33.7670 H   0  0  0  0  0  0  0  0  0  0  0  0
  1  2  1  0
  2  3  2  0
  3  9  1  0
  4  6  2  0
  5  4  1  0
  5  1  2  0
  6  3  1  0
  7 12  1  0
  7 10  1  0
  8 10  2  0
  9 11  1  0
  9  7  2  0
 11  8  1  0
 13  5  1  0
 14 15  2  0
 14 16  1  0
 16 13  1  0
 17 16  1  0
 18 22  2  0
 18 21  1  0
 19 23  1  0
 19 14  1  0
 20 21  1  0
 20 24  1  0
 21 19  1  0
 24 25  1  0
 24 23  1  0
 26 25  1  0
 27 39  1  0
 27 18  1  0
 28 31  1  0
 28 27  1  0
 29 28  1  0
 30 29  2  0
 32 33  1  1
 32 29  1  0
 34 35  1  0
 34 32  1  0
 35 32  1  0
 39 37  1  6
 39 38  1  0
 39 36  1  0
 40  1  1  0
 41 49  2  0
 41 50  1  0
 42 51  1  0
 42 48  1  0
 43 51  1  0
 43 52  1  0
 44 47  1  0
 45 52  1  0
 45 44  1  0
 47 40  1  0
 47 46  1  0
 49 42  2  0
 50 43  2  0
 52 46  1  0
 53 58  1  0
 53 59  1  0
 54 53  1  0
 55 56  1  0
 55 54  1  0
 56 57  1  0
 57 58  1  0
 59 41  1  0
 60 59  2  0
 61 56  1  0
 62 61  1  0
 63 62  2  0
 64 65  2  0
 64 63  1  0
 65 66  1  0
 66 67  1  0
 66 61  2  0
 67 68  1  0
 69 67  1  0
 70 63  1  0
 70 75  1  0
 71 70  2  0
 72 71  1  0
 72 73  2  0
 73 74  1  0
 74 75  2  0
 76 77  1  0
 76 71  1  0
M  ISO  4  40 101  47 101  53 100  59 100
M  END
>  <TORSDO>  (28) 
F 15

>  <SCORE>  (28) 
-15.030

>  <name>  (28) 
27

>  <ligand_id>  (28) 
27

>  <original_smiles>  (28) 
[H]Oc1c([H])c([H])c([H])c([H])c1-c1nnc(N([H])[H])c(N2C([H])([H])C([H])([H])N(C(=O)c3nc(N4C([H])([H])C([H])([H])C([H])(Oc5c([H])c(-c6sc([H])nc6C([H])([H])[H])c([H])c([H])c5C([H])([H])N([H])C(=O)C5([H])N(C(=O)C([H])(N([H])C(=O)C6(F)C([H])([H])C6([H])[H])C(C([H])([H])[H])(C([H])([H])[H])C([H])([H])[H])C([H])([H])C([H])(O[H])C5([H])[H])C4([H])[H])nc(C([H])([H])[H])n3)C([H])([H])C2([H])[H])c1[H]

>  <smiles>  (28) 
[H]Oc1c([H])c([H])c([H])c([H])c1-c1nnc(N([H])[H])c(N2C([H])([H])C([H])([H])N(C(=O)c3nc(N4C([H])([H])C([H])([H])C([H])(Oc5c([H])c(-c6sc([H])nc6C([H])([H])[H])c([H])c([H])c5C([H])([H])N([H])C(=O)C5([H])N(C(=O)C([H])(N([H])C(=O)C6(F)C([H])([H])C6([H])[H])C(C([H])([H])[H])(C([H])([H])[H])C([H])([H])[H])C([H])([H])C([H])(O[H])C5([H])[H])C4([H])[H])nc(C([H])([H])[H])n3)C([H])([H])C2([H])[H])c1[H]

$$$$
28:0:0
     RDKit          3D

 80 88  0  0  1  0  0  0  0  0999 V2000
  -38.5950   14.1080  -23.8820 O   0  0  0  0  0  0  0  0  0  0  0  0
  -39.6990   18.6210  -25.3760 C   0  0  0  0  0  3  0  0  0  0  0  0
  -39.1660   19.5360  -26.2880 C   0  0  0  0  0  0  0  0  0  0  0  0
  -39.4610   18.9010  -24.0250 C   0  0  0  0  0  0  0  0  0  0  0  0
  -38.3770   20.8350  -24.6010 C   0  0  0  0  0  0  0  0  0  0  0  0
  -38.0060   16.3310  -22.9190 C   0  0  0  0  0  2  0  0  0  0  0  0
  -40.3100   15.6800  -23.7160 C   0  0  0  0  0  2  0  0  0  0  0  0
  -38.6390   17.5410  -22.2160 C   0  0  0  0  0  2  0  0  0  0  0  0
  -40.8440   17.0170  -23.1550 C   0  0  0  0  0  2  0  0  0  0  0  0
  -39.0250   15.1700  -23.0290 C   0  0  0  0  0  3  0  0  0  0  0  0
  -37.6270   22.0690  -24.1540 C   0  0  0  0  0  1  0  0  0  0  0  0
  -38.4920   20.6370  -25.9050 N   0  0  0  0  0  0  0  0  0  0  0  0
  -38.8180   20.0190  -23.6530 N   0  0  0  0  0  0  0  0  0  0  0  0
  -39.7890   18.0160  -22.9830 N   0  0  0  0  0  0  0  0  0  0  0  0
  -40.1960   19.2630  -28.5550 N   0  0  0  0  0  0  0  0  0  0  0  0
  -39.9560   19.3590  -30.0130 C   0  0  0  0  0  2  0  0  0  0  0  0
  -41.2280   19.3880  -30.8780 C   0  0  0  0  0  2  0  0  0  0  0  0
  -42.2760   18.5690  -30.2910 N   0  0  0  0  0  0  0  0  0  0  0  0
  -42.6850   18.8610  -28.9200 C   0  0  0  0  0  2  0  0  0  0  0  0
  -41.5720   19.5210  -28.0700 C   0  0  0  0  0  2  0  0  0  0  0  0
  -39.1140   19.3170  -27.7330 C   0  0  0  0  0  3  0  0  0  0  0  0
  -37.8640   19.2230  -28.2100 N   0  0  0  0  0  0  0  0  0  0  0  0
  -37.6280   19.1250  -29.1800 H   0  0  0  0  0  0  0  0  0  0  0  0
  -37.1540   19.4970  -27.5440 H   0  0  0  0  0  0  0  0  0  0  0  0
  -43.2110   17.9940  -31.1820 C   0  0  0  0  0  0  0  0  0  0  0  0
  -44.5180   18.4950  -31.3620 C   0  0  0  0  0  3  0  0  0  0  0  0
  -45.3930   17.8340  -32.2660 C   0  0  0  0  0  0  0  0  0  0  0  0
  -44.9510   16.7370  -32.9470 N   0  0  0  0  0  0  0  0  0  0  0  0
  -43.7200   16.2440  -32.7840 N   0  0  0  0  0  0  0  0  0  0  0  0
  -42.8680   16.8490  -31.9330 C   0  0  0  0  0  0  0  0  0  0  0  0
  -41.6230   16.2620  -31.7860 N   0  0  0  0  0  0  0  0  0  0  0  0
  -41.1530   16.5760  -30.9490 H   0  0  0  0  0  0  0  0  0  0  0  0
  -41.5850   15.2640  -31.9320 H   0  0  0  0  0  0  0  0  0  0  0  0
  -46.8130   18.2630  -32.5250 C   0  0  0  0  0  0  0  0  0  0  0  0
  -47.7300   17.5650  -33.3800 C   0  0  0  0  0  0  0  0  0  0  0  0
  -49.0530   18.0170  -33.5560 C   0  0  0  0  0  3  0  0  0  0  0  0
  -49.5120   19.1670  -32.9010 C   0  0  0  0  0  3  0  0  0  0  0  0
  -48.6380   19.8760  -32.0660 C   0  0  0  0  0  3  0  0  0  0  0  0
  -47.3150   19.4290  -31.8890 C   0  0  0  0  0  3  0  0  0  0  0  0
  -47.3960   16.4330  -34.0690 O   0  0  0  0  0  0  0  0  0  0  0  0
  -46.4790   16.2050  -33.9070 H   0  0  0  0  0  0  0  0  0  0  0  0
  -37.3590   13.5210  -23.7300 C   0  0  0  0  0  0  0  0  0  0  0  0
  -36.6790   13.4290  -22.4920 C   0  0  0  0  0  3  0  0  0  0  0  0
  -35.3950   12.8470  -22.4040 C   0  0  0  0  0  0  0  0  0  0  0  0
  -35.4790   12.3950  -24.8060 C   0  0  0  0  0  3  0  0  0  0  0  0
  -36.7660   12.9720  -24.8900 C   0  0  0  0  0  0  0  0  0  0  0  0
  -34.7990   12.3480  -23.5800 C   0  0  0  0  0  3  0  0  0  0  0  0
  -35.1640   12.2440  -19.9100 C   0  0  0  0  0  0  0  0  0  0  0  0
  -33.0120   12.6740  -19.3470 C   0  0  0  0  0  3  0  0  0  0  0  0
  -34.7020   12.7170  -21.1210 C   0  0  0  0  0  0  0  0  0  0  0  0
  -34.1880   12.2240  -18.9110 N   0  0  0  0  0  0  0  0  0  0  0  0
  -33.0170   13.1790  -21.0250 S   0  0  0  0  0  0  0  0  0  0  0  0
  -36.5330   11.7420  -19.5670 C   0  0  0  0  0  1  0  0  0  0  0  0
  -37.5380   12.9850  -26.2110 C   0  0  0  0  0  2  0  0  0  0  0  0
  -36.1610   13.7240  -28.1340 C   0  0  0  0  0  0  0  0  0  0  0  0
  -36.4260   14.9200  -27.9850 O   0  0  0  0  0  0  0  0  0  0  0  0
  -36.7020   12.7600  -27.3850 N   0  0  0  0  0  0  0  0  0  0  0  0
  -36.4560   11.8010  -27.5910 H   0  0  0  0  0  0  0  0  0  0  0  0
  -36.0900   14.4440  -31.1570 C   0  0  0  0  0  0  0  0  0  0  0  0
  -35.1180   13.2730  -29.1680 C   0  0  0  0  0  3  0  0  0  0  0  0
  -33.6340   14.4890  -30.6390 C   0  0  0  0  0  2  0  0  0  0  0  0
  -35.0320   14.1370  -30.3610 N   0  0  0  0  0  0  0  0  0  0  0  0
  -37.2170   13.9780  -30.9480 O   0  0  0  0  0  0  0  0  0  0  0  0
  -33.7200   13.3150  -28.5290 C   0  0  0  0  0  2  0  0  0  0  0  0
  -32.7870   13.6670  -29.6690 C   0  0  0  0  0  3  0  0  0  0  0  0
  -32.3530   12.4920  -30.3360 O   0  0  0  0  0  0  0  0  0  0  0  0
  -33.1190   12.0240  -30.6510 H   0  0  0  0  0  0  0  0  0  0  0  0
  -35.8970   15.3610  -32.3940 C   0  0  0  0  0  3  0  0  0  0  0  0
  -36.6510   14.7570  -33.5050 N   0  0  0  0  0  0  0  0  0  0  0  0
  -36.1370   14.2250  -34.6240 C   0  0  0  0  0  0  0  0  0  0  0  0
  -34.9300   14.2610  -34.8720 O   0  0  0  0  0  0  0  0  0  0  0  0
  -37.6430   14.6260  -33.3620 H   0  0  0  0  0  0  0  0  0  0  0  0
  -37.1300   13.5800  -35.5540 C   0  0  1  0  0  0  0  0  0  0  0  0
  -38.3920   13.4230  -35.0060 F   0  0  0  0  0  0  0  0  0  0  0  0
  -37.0580   13.8740  -37.0360 C   0  0  0  0  0  2  0  0  0  0  0  0
  -36.6700   12.5060  -36.5180 C   0  0  0  0  0  2  0  0  0  0  0  0
  -35.7160   17.4570  -30.8920 C   0  0  0  0  0  1  0  0  0  0  0  0
  -35.8940   17.7100  -33.3540 C   0  0  0  0  0  1  0  0  0  0  0  0
  -37.8910   16.9850  -32.0300 C   0  0  0  0  0  1  0  0  0  0  0  0
  -36.3580   16.8470  -32.1610 C   0  0  1  0  0  0  0  0  0  0  0  0
  1 42  1  0
  2  4  1  0
  3 12  1  0
  3  2  2  0
  4 13  2  0
  4 14  1  0
  5 11  1  0
  5 13  1  0
  6  8  1  0
  7  9  1  0
  7 10  1  0
  9 14  1  0
 10  1  1  0
 10  6  1  0
 12  5  2  0
 14  8  1  0
 15 20  1  0
 15 21  1  0
 16 15  1  0
 17 18  1  0
 17 16  1  0
 18 19  1  0
 19 20  1  0
 21 22  1  0
 21  3  1  0
 22 24  1  0
 23 22  1  0
 25 18  1  0
 26 25  1  0
 27 26  2  0
 28 29  2  0
 28 27  1  0
 29 30  1  0
 30 31  1  0
 30 25  2  0
 31 32  1  0
 33 31  1  0
 34 27  1  0
 34 39  1  0
 35 34  2  0
 36 35  1  0
 36 37  2  0
 37 38  1  0
 38 39  2  0
 40 41  1  0
 40 35  1  0
 42 43  1  0
 43 44  2  0
 44 50  1  0
 45 47  2  0
 46 45  1  0
 46 42  2  0
 47 44  1  0
 48 53  1  0
 48 51  1  0
 49 51  2  0
 50 52  1  0
 50 48  2  0
 52 49  1  0
 54 46  1  0
 55 56  2  0
 55 57  1  0
 57 54  1  0
 58 57  1  0
 59 63  2  0
 59 62  1  0
 60 64  1  0
 60 55  1  0
 61 62  1  0
 61 65  1  0
 62 60  1  0
 65 66  1  0
 65 64  1  0
 67 66  1  0
 68 80  1  0
 68 59  1  0
 69 72  1  0
 69 68  1  0
 70 69  1  0
 71 70  2  0
 73 74  1  1
 73 70  1  0
 75 76  1  0
 75 73  1  0
 76 73  1  0
 80 78  1  6
 80 79  1  0
 80 77  1  0
M  ISO  4   1 101  10 101  15 100  21 100
M  END
>  <TORSDO>  (29) 
F 15

>  <SCORE>  (29) 
-15.213

>  <name>  (29) 
28

>  <ligand_id>  (29) 
28

>  <original_smiles>  (29) 
[H]Oc1c([H])c([H])c([H])c([H])c1-c1nnc(N([H])[H])c(N2C([H])([H])C([H])([H])N(C(c3nc(C([H])([H])[H])nc(N4C([H])([H])C([H])([H])C([H])(Oc5c([H])c(-c6sc([H])nc6C([H])([H])[H])c([H])c([H])c5C([H])([H])N([H])C(=O)C5([H])N(C(=O)C([H])(N([H])C(=O)C6(F)C([H])([H])C6([H])[H])C(C([H])([H])[H])(C([H])([H])[H])C([H])([H])[H])C([H])([H])C([H])(O[H])C5([H])[H])C([H])([H])C4([H])[H])c3[H])=[N+]([H])[H])C([H])([H])C2([H])[H])c1[H]

>  <smiles>  (29) 
[H]Oc1c([H])c([H])c([H])c([H])c1-c1nnc(N([H])[H])c(N2C([H])([H])C([H])([H])N(C(c3nc(C([H])([H])[H])nc(N4C([H])([H])C([H])([H])C([H])(Oc5c([H])c(-c6sc([H])nc6C([H])([H])[H])c([H])c([H])c5C([H])([H])N([H])C(=O)C5([H])N(C(=O)C([H])(N([H])C(=O)C6(F)C([H])([H])C6([H])[H])C(C([H])([H])[H])(C([H])([H])[H])C([H])([H])[H])C([H])([H])C([H])(O[H])C5([H])[H])C([H])([H])C4([H])[H])c3[H])=[N+]([H])[H])C([H])([H])C2([H])[H])c1[H]

$$$$
29:0:0
     RDKit          3D

 80 88  0  0  1  0  0  0  0  0999 V2000
  -38.5510   14.1720  -23.8410 O   0  0  0  0  0  0  0  0  0  0  0  0
  -39.7250   20.9450  -25.9560 C   0  0  0  0  0  3  0  0  0  0  0  0
  -39.3780   19.6080  -26.2270 C   0  0  0  0  0  0  0  0  0  0  0  0
  -39.9390   21.2700  -24.6220 C   0  0  0  0  0  0  0  0  0  0  0  0
  -39.4710   19.1450  -24.0050 C   0  0  0  0  0  0  0  0  0  0  0  0
  -37.6740   16.4360  -23.4010 C   0  0  0  0  0  2  0  0  0  0  0  0
  -40.1340   15.9310  -23.4390 C   0  0  0  0  0  2  0  0  0  0  0  0
  -37.9720   17.7590  -22.6800 C   0  0  0  0  0  2  0  0  0  0  0  0
  -40.3920   17.2730  -22.7250 C   0  0  0  0  0  2  0  0  0  0  0  0
  -38.7480   15.3680  -23.0810 C   0  0  0  0  0  3  0  0  0  0  0  0
  -39.2380   18.7120  -25.2300 N   0  0  0  0  0  0  0  0  0  0  0  0
  -39.8190   20.3700  -23.6430 N   0  0  0  0  0  0  0  0  0  0  0  0
  -39.3200   18.2350  -22.9800 N   0  0  0  0  0  0  0  0  0  0  0  0
  -40.2860   22.5560  -24.2430 N   0  0  0  0  0  0  0  0  0  0  0  0
  -40.5270   23.2590  -24.9310 H   0  0  0  0  0  0  0  0  0  0  0  0
  -40.5850   22.7520  -23.2960 H   0  0  0  0  0  0  0  0  0  0  0  0
  -40.1840   19.2730  -28.5120 N   0  0  0  0  0  0  0  0  0  0  0  0
  -39.9130   19.3140  -29.9610 C   0  0  0  0  0  2  0  0  0  0  0  0
  -41.1760   19.4250  -30.8420 C   0  0  0  0  0  2  0  0  0  0  0  0
  -42.2420   18.6010  -30.2910 N   0  0  0  0  0  0  0  0  0  0  0  0
  -42.6440   18.8400  -28.9110 C   0  0  0  0  0  2  0  0  0  0  0  0
  -41.5650   19.5940  -28.1030 C   0  0  0  0  0  2  0  0  0  0  0  0
  -39.1520   19.1480  -27.6440 C   0  0  0  0  0  0  0  0  0  0  0  0
  -38.0310   18.7460  -27.9780 O   0  0  0  0  0  0  0  0  0  0  0  0
  -43.1680   18.0140  -31.1810 C   0  0  0  0  0  0  0  0  0  0  0  0
  -44.4790   18.5050  -31.3530 C   0  0  0  0  0  3  0  0  0  0  0  0
  -45.3540   17.8380  -32.2530 C   0  0  0  0  0  0  0  0  0  0  0  0
  -44.9110   16.7410  -32.9310 N   0  0  0  0  0  0  0  0  0  0  0  0
  -43.6770   16.2550  -32.7700 N   0  0  0  0  0  0  0  0  0  0  0  0
  -42.8230   16.8650  -31.9260 C   0  0  0  0  0  0  0  0  0  0  0  0
  -41.5790   16.2790  -31.7760 N   0  0  0  0  0  0  0  0  0  0  0  0
  -41.1050   16.6080  -30.9450 H   0  0  0  0  0  0  0  0  0  0  0  0
  -41.5430   15.2790  -31.9120 H   0  0  0  0  0  0  0  0  0  0  0  0
  -46.7750   18.2610  -32.5080 C   0  0  0  0  0  0  0  0  0  0  0  0
  -47.6910   17.5600  -33.3590 C   0  0  0  0  0  0  0  0  0  0  0  0
  -49.0160   18.0060  -33.5340 C   0  0  0  0  0  3  0  0  0  0  0  0
  -49.4780   19.1570  -32.8800 C   0  0  0  0  0  3  0  0  0  0  0  0
  -48.6040   19.8700  -32.0480 C   0  0  0  0  0  3  0  0  0  0  0  0
  -47.2800   19.4270  -31.8710 C   0  0  0  0  0  3  0  0  0  0  0  0
  -47.3550   16.4280  -34.0470 O   0  0  0  0  0  0  0  0  0  0  0  0
  -46.4380   16.2010  -33.8900 H   0  0  0  0  0  0  0  0  0  0  0  0
  -37.3320   13.5380  -23.7240 C   0  0  0  0  0  0  0  0  0  0  0  0
  -36.6430   13.4300  -22.4910 C   0  0  0  0  0  3  0  0  0  0  0  0
  -35.3750   12.8190  -22.4080 C   0  0  0  0  0  0  0  0  0  0  0  0
  -35.4780   12.3850  -24.8120 C   0  0  0  0  0  3  0  0  0  0  0  0
  -36.7570   12.9820  -24.8890 C   0  0  0  0  0  0  0  0  0  0  0  0
  -34.7920   12.3160  -23.5880 C   0  0  0  0  0  3  0  0  0  0  0  0
  -35.1590   12.1750  -19.9220 C   0  0  0  0  0  0  0  0  0  0  0  0
  -33.0120   12.6060  -19.3420 C   0  0  0  0  0  3  0  0  0  0  0  0
  -34.6900   12.6710  -21.1240 C   0  0  0  0  0  0  0  0  0  0  0  0
  -34.1890   12.1430  -18.9180 N   0  0  0  0  0  0  0  0  0  0  0  0
  -33.0090   13.1380  -21.0110 S   0  0  0  0  0  0  0  0  0  0  0  0
  -36.5270   11.6610  -19.5990 C   0  0  0  0  0  1  0  0  0  0  0  0
  -37.5260   13.0240  -26.2100 C   0  0  0  0  0  2  0  0  0  0  0  0
  -36.1480   13.7530  -28.1370 C   0  0  0  0  0  0  0  0  0  0  0  0
  -36.4060   14.9500  -27.9950 O   0  0  0  0  0  0  0  0  0  0  0  0
  -36.6910   12.7940  -27.3840 N   0  0  0  0  0  0  0  0  0  0  0  0
  -36.4480   11.8330  -27.5860 H   0  0  0  0  0  0  0  0  0  0  0  0
  -36.0870   14.4460  -31.1690 C   0  0  0  0  0  0  0  0  0  0  0  0
  -35.1070   13.2940  -29.1730 C   0  0  0  0  0  3  0  0  0  0  0  0
  -33.6300   14.4960  -30.6580 C   0  0  0  0  0  2  0  0  0  0  0  0
  -35.0270   14.1460  -30.3740 N   0  0  0  0  0  0  0  0  0  0  0  0
  -37.2120   13.9820  -30.9510 O   0  0  0  0  0  0  0  0  0  0  0  0
  -33.7060   13.3410  -28.5380 C   0  0  0  0  0  2  0  0  0  0  0  0
  -32.7780   13.6850  -29.6850 C   0  0  0  0  0  3  0  0  0  0  0  0
  -32.3470   12.5040  -30.3440 O   0  0  0  0  0  0  0  0  0  0  0  0
  -33.1150   12.0350  -30.6530 H   0  0  0  0  0  0  0  0  0  0  0  0
  -35.9000   15.3540  -32.4130 C   0  0  0  0  0  3  0  0  0  0  0  0
  -36.6720   14.7500  -33.5130 N   0  0  0  0  0  0  0  0  0  0  0  0
  -36.1770   14.2120  -34.6370 C   0  0  0  0  0  0  0  0  0  0  0  0
  -34.9720   14.2400  -34.9010 O   0  0  0  0  0  0  0  0  0  0  0  0
  -37.6630   14.6260  -33.3540 H   0  0  0  0  0  0  0  0  0  0  0  0
  -37.1860   13.5700  -35.5510 C   0  0  1  0  0  0  0  0  0  0  0  0
  -38.4430   13.4290  -34.9870 F   0  0  0  0  0  0  0  0  0  0  0  0
  -37.1290   13.8510  -37.0360 C   0  0  0  0  0  2  0  0  0  0  0  0
  -36.7470   12.4850  -36.5110 C   0  0  0  0  0  2  0  0  0  0  0  0
  -35.7130   17.4420  -30.9010 C   0  0  0  0  0  1  0  0  0  0  0  0
  -35.8380   17.7040  -33.3660 C   0  0  0  0  0  1  0  0  0  0  0  0
  -37.8720   17.0110  -32.0850 C   0  0  0  0  0  1  0  0  0  0  0  0
  -36.3400   16.8460  -32.1860 C   0  0  1  0  0  0  0  0  0  0  0  0
  1 42  1  0
  2  4  1  0
  3  2  2  0
  3 11  1  0
  4 14  1  0
  4 12  2  0
  5 12  1  0
  5 13  1  0
  6 10  1  0
  6  8  1  0
  7 10  1  0
  7  9  1  0
 10  1  1  0
 11  5  2  0
 13  9  1  0
 13  8  1  0
 14 16  1  0
 15 14  1  0
 17 22  1  0
 17 23  1  0
 18 17  1  0
 19 20  1  0
 19 18  1  0
 20 21  1  0
 21 22  1  0
 23  3  1  0
 24 23  2  0
 25 20  1  0
 26 25  1  0
 27 26  2  0
 28 29  2  0
 28 27  1  0
 29 30  1  0
 30 31  1  0
 30 25  2  0
 31 32  1  0
 33 31  1  0
 34 27  1  0
 34 39  1  0
 35 34  2  0
 36 35  1  0
 36 37  2  0
 37 38  1  0
 38 39  2  0
 40 41  1  0
 40 35  1  0
 42 43  1  0
 43 44  2  0
 44 50  1  0
 45 47  2  0
 46 45  1  0
 46 42  2  0
 47 44  1  0
 48 53  1  0
 48 51  1  0
 49 51  2  0
 50 52  1  0
 50 48  2  0
 52 49  1  0
 54 46  1  0
 55 56  2  0
 55 57  1  0
 57 54  1  0
 58 57  1  0
 59 63  2  0
 59 62  1  0
 60 64  1  0
 60 55  1  0
 61 62  1  0
 61 65  1  0
 62 60  1  0
 65 66  1  0
 65 64  1  0
 67 66  1  0
 68 80  1  0
 68 59  1  0
 69 72  1  0
 69 68  1  0
 70 69  1  0
 71 70  2  0
 73 74  1  1
 73 70  1  0
 75 76  1  0
 75 73  1  0
 76 73  1  0
 80 78  1  6
 80 79  1  0
 80 77  1  0
M  ISO  4   1 101  10 101  17 100  23 100
M  END
>  <TORSDO>  (30) 
F 15

>  <SCORE>  (30) 
-15.177

>  <name>  (30) 
29

>  <ligand_id>  (30) 
29

>  <original_smiles>  (30) 
[H]Oc1c([H])c([H])c([H])c([H])c1-c1nnc(N([H])[H])c(N2C([H])([H])C([H])([H])N(C(=O)c3nc(N4C([H])([H])C([H])([H])C([H])(Oc5c([H])c(-c6sc([H])nc6C([H])([H])[H])c([H])c([H])c5C([H])([H])N([H])C(=O)C5([H])N(C(=O)C([H])(N([H])C(=O)C6(F)C([H])([H])C6([H])[H])C(C([H])([H])[H])(C([H])([H])[H])C([H])([H])[H])C([H])([H])C([H])(O[H])C5([H])[H])C([H])([H])C4([H])[H])nc(N([H])[H])c3[H])C([H])([H])C2([H])[H])c1[H]

>  <smiles>  (30) 
[H]Oc1c([H])c([H])c([H])c([H])c1-c1nnc(N([H])[H])c(N2C([H])([H])C([H])([H])N(C(=O)c3nc(N4C([H])([H])C([H])([H])C([H])(Oc5c([H])c(-c6sc([H])nc6C([H])([H])[H])c([H])c([H])c5C([H])([H])N([H])C(=O)C5([H])N(C(=O)C([H])(N([H])C(=O)C6(F)C([H])([H])C6([H])[H])C(C([H])([H])[H])(C([H])([H])[H])C([H])([H])[H])C([H])([H])C([H])(O[H])C5([H])[H])C([H])([H])C4([H])[H])nc(N([H])[H])c3[H])C([H])([H])C2([H])[H])c1[H]

$$$$
30:0:0
     RDKit          3D

 78 86  0  0  1  0  0  0  0  0999 V2000
  -37.4060   13.4790  -23.6970 C   0  0  0  0  0  0  0  0  0  0  0  0
  -36.7020   13.4270  -22.4670 C   0  0  0  0  0  3  0  0  0  0  0  0
  -35.4290   12.8200  -22.3790 C   0  0  0  0  0  0  0  0  0  0  0  0
  -35.5190   12.3700  -24.7800 C   0  0  0  0  0  3  0  0  0  0  0  0
  -36.8040   12.9500  -24.8630 C   0  0  0  0  0  0  0  0  0  0  0  0
  -34.8410   12.3060  -23.5530 C   0  0  0  0  0  3  0  0  0  0  0  0
  -35.2090   12.2070  -19.8860 C   0  0  0  0  0  0  0  0  0  0  0  0
  -33.0490   12.5940  -19.3270 C   0  0  0  0  0  3  0  0  0  0  0  0
  -34.7390   12.6750  -21.0970 C   0  0  0  0  0  0  0  0  0  0  0  0
  -34.2320   12.1640  -18.8890 N   0  0  0  0  0  0  0  0  0  0  0  0
  -33.0440   13.1000  -21.0040 S   0  0  0  0  0  0  0  0  0  0  0  0
  -36.5900   11.7340  -19.5430 C   0  0  0  0  0  1  0  0  0  0  0  0
  -37.5780   12.9580  -26.1810 C   0  0  0  0  0  2  0  0  0  0  0  0
  -36.2060   13.7150  -28.1010 C   0  0  0  0  0  0  0  0  0  0  0  0
  -36.4720   14.9090  -27.9480 O   0  0  0  0  0  0  0  0  0  0  0  0
  -36.7390   12.7460  -27.3540 N   0  0  0  0  0  0  0  0  0  0  0  0
  -36.4760   11.7920  -27.5580 H   0  0  0  0  0  0  0  0  0  0  0  0
  -36.1470   14.4390  -31.1240 C   0  0  0  0  0  0  0  0  0  0  0  0
  -35.1680   13.2640  -29.1420 C   0  0  0  0  0  3  0  0  0  0  0  0
  -33.6880   14.4820  -30.6130 C   0  0  0  0  0  2  0  0  0  0  0  0
  -35.0860   14.1320  -30.3320 N   0  0  0  0  0  0  0  0  0  0  0  0
  -37.2730   13.9730  -30.9110 O   0  0  0  0  0  0  0  0  0  0  0  0
  -33.7670   13.2990  -28.5090 C   0  0  0  0  0  2  0  0  0  0  0  0
  -32.8370   13.6550  -29.6510 C   0  0  0  0  0  3  0  0  0  0  0  0
  -32.4050   12.4800  -30.3200 O   0  0  0  0  0  0  0  0  0  0  0  0
  -33.1700   12.0080  -30.6340 H   0  0  0  0  0  0  0  0  0  0  0  0
  -35.9600   15.3590  -32.3580 C   0  0  0  0  0  3  0  0  0  0  0  0
  -36.7000   14.7470  -33.4740 N   0  0  0  0  0  0  0  0  0  0  0  0
  -36.1740   14.2140  -34.5840 C   0  0  0  0  0  0  0  0  0  0  0  0
  -34.9640   14.2540  -34.8210 O   0  0  0  0  0  0  0  0  0  0  0  0
  -37.6940   14.6140  -33.3400 H   0  0  0  0  0  0  0  0  0  0  0  0
  -37.1550   13.5620  -35.5220 C   0  0  1  0  0  0  0  0  0  0  0  0
  -38.4230   13.4010  -34.9830 F   0  0  0  0  0  0  0  0  0  0  0  0
  -37.0720   13.8560  -37.0010 C   0  0  0  0  0  2  0  0  0  0  0  0
  -36.6830   12.4910  -36.4790 C   0  0  0  0  0  2  0  0  0  0  0  0
  -35.7910   17.4600  -30.8600 C   0  0  0  0  0  1  0  0  0  0  0  0
  -35.9920   17.7050  -33.3220 C   0  0  0  0  0  1  0  0  0  0  0  0
  -37.9700   16.9600  -31.9820 C   0  0  0  0  0  1  0  0  0  0  0  0
  -36.4370   16.8390  -32.1240 C   0  0  1  0  0  0  0  0  0  0  0  0
  -38.6700   14.0060  -23.8420 O   0  0  0  0  0  0  0  0  0  0  0  0
  -40.1400   17.1950  -25.5590 C   0  0  0  0  0  3  0  0  0  0  0  0
  -39.6210   18.3650  -26.1330 C   0  0  0  0  0  0  0  0  0  0  0  0
  -40.2380   17.2110  -24.1500 C   0  0  0  0  0  0  0  0  0  0  0  0
  -40.9300   13.7660  -23.1440 C   0  0  0  0  0  2  0  0  0  0  0  0
  -41.3650   14.9800  -23.9660 C   0  0  0  0  0  2  0  0  0  0  0  0
  -39.6690   15.6380  -22.4150 C   0  0  0  0  0  2  0  0  0  0  0  0
  -39.5200   14.1440  -22.7060 C   0  0  0  0  0  3  0  0  0  0  0  0
  -39.2490   19.4350  -25.3990 N   0  0  0  0  0  0  0  0  0  0  0  0
  -39.8640   18.3060  -23.4460 N   0  0  0  0  0  0  0  0  0  0  0  0
  -39.3860   19.3860  -24.0720 N   0  0  0  0  0  0  0  0  0  0  0  0
  -40.6710   16.1220  -23.3680 N   0  0  0  0  0  0  0  0  0  0  0  0
  -40.2640   19.1180  -28.3970 N   0  0  0  0  0  0  0  0  0  0  0  0
  -39.9640   19.4510  -29.8100 C   0  0  0  0  0  2  0  0  0  0  0  0
  -41.2150   19.4220  -30.7230 C   0  0  0  0  0  2  0  0  0  0  0  0
  -42.2760   18.5910  -30.1530 N   0  0  0  0  0  0  0  0  0  0  0  0
  -42.7240   18.9200  -28.8000 C   0  0  0  0  0  2  0  0  0  0  0  0
  -41.6010   19.5420  -27.9330 C   0  0  0  0  0  2  0  0  0  0  0  0
  -39.3710   18.5140  -27.5670 C   0  0  0  0  0  3  0  0  0  0  0  0
  -38.2070   18.0360  -28.0400 N   0  0  0  0  0  0  0  0  0  0  0  0
  -37.5640   17.5720  -27.4170 H   0  0  0  0  0  0  0  0  0  0  0  0
  -37.9460   18.1300  -29.0060 H   0  0  0  0  0  0  0  0  0  0  0  0
  -43.1870   18.0010  -31.0600 C   0  0  0  0  0  0  0  0  0  0  0  0
  -44.4940   18.4940  -31.2680 C   0  0  0  0  0  3  0  0  0  0  0  0
  -45.3470   17.8260  -32.1870 C   0  0  0  0  0  0  0  0  0  0  0  0
  -44.8920   16.7250  -32.8480 N   0  0  0  0  0  0  0  0  0  0  0  0
  -43.6650   16.2340  -32.6550 N   0  0  0  0  0  0  0  0  0  0  0  0
  -42.8290   16.8460  -31.7920 C   0  0  0  0  0  0  0  0  0  0  0  0
  -41.5910   16.2530  -31.6140 N   0  0  0  0  0  0  0  0  0  0  0  0
  -41.1400   16.5390  -30.7560 H   0  0  0  0  0  0  0  0  0  0  0  0
  -41.5440   15.2630  -31.8040 H   0  0  0  0  0  0  0  0  0  0  0  0
  -46.7590   18.2550  -32.4820 C   0  0  0  0  0  0  0  0  0  0  0  0
  -47.6610   17.5440  -33.3410 C   0  0  0  0  0  0  0  0  0  0  0  0
  -48.9800   17.9960  -33.5510 C   0  0  0  0  0  3  0  0  0  0  0  0
  -49.4490   19.1590  -32.9230 C   0  0  0  0  0  3  0  0  0  0  0  0
  -48.5880   19.8810  -32.0850 C   0  0  0  0  0  3  0  0  0  0  0  0
  -47.2710   19.4340  -31.8750 C   0  0  0  0  0  3  0  0  0  0  0  0
  -47.3190   16.4000  -34.0050 O   0  0  0  0  0  0  0  0  0  0  0  0
  -46.4070   16.1710  -33.8280 H   0  0  0  0  0  0  0  0  0  0  0  0
  1  2  1  0
  2  3  2  0
  3  9  1  0
  4  6  2  0
  5  4  1  0
  5  1  2  0
  6  3  1  0
  7 12  1  0
  7 10  1  0
  8 10  2  0
  9 11  1  0
  9  7  2  0
 11  8  1  0
 13  5  1  0
 14 15  2  0
 14 16  1  0
 16 13  1  0
 17 16  1  0
 18 22  2  0
 18 21  1  0
 19 23  1  0
 19 14  1  0
 20 21  1  0
 20 24  1  0
 21 19  1  0
 24 25  1  0
 24 23  1  0
 26 25  1  0
 27 39  1  0
 27 18  1  0
 28 31  1  0
 28 27  1  0
 29 28  1  0
 30 29  2  0
 32 33  1  1
 32 29  1  0
 34 35  1  0
 34 32  1  0
 35 32  1  0
 39 37  1  6
 39 38  1  0
 39 36  1  0
 40  1  1  0
 41 43  1  0
 42 41  2  0
 42 48  1  0
 43 49  2  0
 43 51  1  0
 44 47  1  0
 45 51  1  0
 45 44  1  0
 47 40  1  0
 47 46  1  0
 48 50  2  0
 50 49  1  0
 51 46  1  0
 52 57  1  0
 52 58  1  0
 53 52  1  0
 54 55  1  0
 54 53  1  0
 55 56  1  0
 56 57  1  0
 58 59  1  0
 58 42  1  0
 59 60  1  0
 61 59  1  0
 62 55  1  0
 63 62  1  0
 64 63  2  0
 65 66  2  0
 65 64  1  0
 66 67  1  0
 67 68  1  0
 67 62  2  0
 68 69  1  0
 70 68  1  0
 71 64  1  0
 71 76  1  0
 72 71  2  0
 73 72  1  0
 73 74  2  0
 74 75  1  0
 75 76  2  0
 77 78  1  0
 77 72  1  0
M  ISO  4  40 101  47 101  52 100  58 100
M  END
>  <TORSDO>  (31) 
F 15

>  <SCORE>  (31) 
-14.972

>  <name>  (31) 
30

>  <ligand_id>  (31) 
30

>  <original_smiles>  (31) 
[H]Oc1c([H])c([H])c([H])c([H])c1-c1nnc(N([H])[H])c(N2C([H])([H])C([H])([H])N(C(c3nnnc(N4C([H])([H])C([H])([H])C([H])(Oc5c([H])c(-c6sc([H])nc6C([H])([H])[H])c([H])c([H])c5C([H])([H])N([H])C(=O)C5([H])N(C(=O)C([H])(N([H])C(=O)C6(F)C([H])([H])C6([H])[H])C(C([H])([H])[H])(C([H])([H])[H])C([H])([H])[H])C([H])([H])C([H])(O[H])C5([H])[H])C4([H])[H])c3[H])=[N+]([H])[H])C([H])([H])C2([H])[H])c1[H]

>  <smiles>  (31) 
[H]Oc1c([H])c([H])c([H])c([H])c1-c1nnc(N([H])[H])c(N2C([H])([H])C([H])([H])N(C(c3nnnc(N4C([H])([H])C([H])([H])C([H])(Oc5c([H])c(-c6sc([H])nc6C([H])([H])[H])c([H])c([H])c5C([H])([H])N([H])C(=O)C5([H])N(C(=O)C([H])(N([H])C(=O)C6(F)C([H])([H])C6([H])[H])C(C([H])([H])[H])(C([H])([H])[H])C([H])([H])[H])C([H])([H])C([H])(O[H])C5([H])[H])C4([H])[H])c3[H])=[N+]([H])[H])C([H])([H])C2([H])[H])c1[H]

$$$$
31:0:0
     RDKit          3D

 77 85  0  0  1  0  0  0  0  0999 V2000
  -37.4930   13.5300  -23.7770 C   0  0  0  0  0  0  0  0  0  0  0  0
  -36.8350   13.3670  -22.5370 C   0  0  0  0  0  3  0  0  0  0  0  0
  -35.5640   12.7730  -22.4470 C   0  0  0  0  0  0  0  0  0  0  0  0
  -35.6290   12.3800  -24.8580 C   0  0  0  0  0  3  0  0  0  0  0  0
  -36.9000   12.9940  -24.9450 C   0  0  0  0  0  0  0  0  0  0  0  0
  -34.9600   12.2910  -23.6250 C   0  0  0  0  0  3  0  0  0  0  0  0
  -35.4130   12.1550  -19.9540 C   0  0  0  0  0  0  0  0  0  0  0  0
  -33.2680   12.5480  -19.3370 C   0  0  0  0  0  3  0  0  0  0  0  0
  -34.9070   12.6210  -21.1520 C   0  0  0  0  0  0  0  0  0  0  0  0
  -34.4640   12.1180  -18.9300 N   0  0  0  0  0  0  0  0  0  0  0  0
  -33.2190   13.0560  -21.0130 S   0  0  0  0  0  0  0  0  0  0  0  0
  -36.8000   11.6790  -19.6490 C   0  0  0  0  0  1  0  0  0  0  0  0
  -37.6480   13.0570  -26.2780 C   0  0  0  0  0  2  0  0  0  0  0  0
  -36.2250   13.7630  -28.1790 C   0  0  0  0  0  0  0  0  0  0  0  0
  -36.4630   14.9640  -28.0330 O   0  0  0  0  0  0  0  0  0  0  0  0
  -36.8010   12.8110  -27.4400 N   0  0  0  0  0  0  0  0  0  0  0  0
  -36.5590   11.8490  -27.6340 H   0  0  0  0  0  0  0  0  0  0  0  0
  -36.1110   14.4500  -31.2070 C   0  0  0  0  0  0  0  0  0  0  0  0
  -35.1740   13.2890  -29.1970 C   0  0  0  0  0  3  0  0  0  0  0  0
  -33.6630   14.4800  -30.6600 C   0  0  0  0  0  2  0  0  0  0  0  0
  -35.0670   14.1410  -30.3960 N   0  0  0  0  0  0  0  0  0  0  0  0
  -37.2430   13.9930  -31.0080 O   0  0  0  0  0  0  0  0  0  0  0  0
  -33.7820   13.3240  -28.5420 C   0  0  0  0  0  2  0  0  0  0  0  0
  -32.8320   13.6620  -29.6730 C   0  0  0  0  0  3  0  0  0  0  0  0
  -32.3960   12.4800  -30.3240 O   0  0  0  0  0  0  0  0  0  0  0  0
  -33.1600   12.0120  -30.6470 H   0  0  0  0  0  0  0  0  0  0  0  0
  -35.8990   15.3590  -32.4470 C   0  0  0  0  0  3  0  0  0  0  0  0
  -36.6420   14.7520  -33.5640 N   0  0  0  0  0  0  0  0  0  0  0  0
  -36.1190   14.2040  -34.6700 C   0  0  0  0  0  0  0  0  0  0  0  0
  -34.9070   14.2260  -34.9010 O   0  0  0  0  0  0  0  0  0  0  0  0
  -37.6390   14.6310  -33.4330 H   0  0  0  0  0  0  0  0  0  0  0  0
  -37.1040   13.5590  -35.6080 C   0  0  1  0  0  0  0  0  0  0  0  0
  -38.3800   13.4290  -35.0800 F   0  0  0  0  0  0  0  0  0  0  0  0
  -37.0020   13.8310  -37.0900 C   0  0  0  0  0  2  0  0  0  0  0  0
  -36.6430   12.4660  -36.5470 C   0  0  0  0  0  2  0  0  0  0  0  0
  -35.7180   17.4620  -30.9550 C   0  0  0  0  0  1  0  0  0  0  0  0
  -35.8630   17.7000  -33.4230 C   0  0  0  0  0  1  0  0  0  0  0  0
  -37.8820   17.0050  -32.1160 C   0  0  0  0  0  1  0  0  0  0  0  0
  -36.3500   16.8500  -32.2290 C   0  0  1  0  0  0  0  0  0  0  0  0
  -38.6990   14.1830  -23.9010 O   0  0  0  0  0  0  0  0  0  0  0  0
  -40.3610   19.3120  -28.4410 N   0  0  0  0  0  0  0  0  0  0  0  0
  -40.0390   19.6430  -29.8310 C   0  0  0  0  0  2  0  0  0  0  0  0
  -41.2710   19.5510  -30.7730 C   0  0  0  0  0  2  0  0  0  0  0  0
  -42.2970   18.6430  -30.2500 N   0  0  0  0  0  0  0  0  0  0  0  0
  -42.7570   18.8340  -28.8760 C   0  0  0  0  0  2  0  0  0  0  0  0
  -41.7330   19.6030  -28.0210 C   0  0  0  0  0  2  0  0  0  0  0  0
  -37.5160   19.8470  -26.5340 C   0  0  0  0  0  0  0  0  0  0  0  0
  -38.8260   18.3800  -25.5050 C   0  0  0  0  0  0  0  0  0  0  0  0
  -39.4000   19.2040  -27.4650 C   0  0  0  0  0  0  0  0  0  0  0  0
  -40.4710   15.6250  -23.4140 C   0  0  0  0  0  2  0  0  0  0  0  0
  -40.1680   16.5080  -24.6410 C   0  0  0  0  0  2  0  0  0  0  0  0
  -37.9120   17.0500  -23.6930 C   0  0  0  0  0  2  0  0  0  0  0  0
  -38.2530   16.2140  -22.4590 C   0  0  0  0  0  3  0  0  0  0  0  0
  -39.1830   15.0290  -22.8440 C   0  0  0  0  0  3  0  0  0  0  0  0
  -36.2890   20.7310  -26.5230 C   0  0  0  0  0  1  0  0  0  0  0  0
  -38.8000   17.0740  -21.3040 C   0  0  0  0  0  1  0  0  0  0  0  0
  -37.7060   19.0900  -25.4600 N   0  0  0  0  0  4  0  0  0  0  0  0
  -38.3140   19.9440  -27.5920 N   0  0  0  0  0  0  0  0  0  0  0  0
  -39.7240   18.4120  -26.4680 N   0  0  0  0  0  2  0  0  0  0  0  0
  -39.0900   17.5010  -24.4450 N   0  0  0  0  0  0  0  0  0  0  0  0
  -43.1710   18.0240  -31.1660 C   0  0  0  0  0  0  0  0  0  0  0  0
  -44.5050   18.4450  -31.3510 C   0  0  0  0  0  3  0  0  0  0  0  0
  -45.3260   17.7480  -32.2760 C   0  0  0  0  0  0  0  0  0  0  0  0
  -44.8100   16.6890  -32.9650 N   0  0  0  0  0  0  0  0  0  0  0  0
  -43.5540   16.2670  -32.7900 N   0  0  0  0  0  0  0  0  0  0  0  0
  -42.7490   16.9070  -31.9190 C   0  0  0  0  0  0  0  0  0  0  0  0
  -41.4790   16.3810  -31.7560 N   0  0  0  0  0  0  0  0  0  0  0  0
  -41.0350   16.7050  -30.9070 H   0  0  0  0  0  0  0  0  0  0  0  0
  -41.3820   15.3900  -31.9250 H   0  0  0  0  0  0  0  0  0  0  0  0
  -46.7630   18.0960  -32.5490 C   0  0  0  0  0  0  0  0  0  0  0  0
  -47.6300   17.3460  -33.4090 C   0  0  0  0  0  0  0  0  0  0  0  0
  -48.9750   17.7210  -33.6040 C   0  0  0  0  0  3  0  0  0  0  0  0
  -49.5040   18.8490  -32.9590 C   0  0  0  0  0  3  0  0  0  0  0  0
  -48.6800   19.6080  -32.1190 C   0  0  0  0  0  3  0  0  0  0  0  0
  -47.3380   19.2360  -31.9220 C   0  0  0  0  0  3  0  0  0  0  0  0
  -47.2260   16.2320  -34.0880 O   0  0  0  0  0  0  0  0  0  0  0  0
  -46.3000   16.0560  -33.9130 H   0  0  0  0  0  0  0  0  0  0  0  0
  1  2  1  0
  2  3  2  0
  3  9  1  0
  4  6  2  0
  5  4  1  0
  5  1  2  0
  6  3  1  0
  7 12  1  0
  7 10  1  0
  8 10  2  0
  9 11  1  0
  9  7  2  0
 11  8  1  0
 13  5  1  0
 14 15  2  0
 14 16  1  0
 16 13  1  0
 17 16  1  0
 18 22  2  0
 18 21  1  0
 19 23  1  0
 19 14  1  0
 20 21  1  0
 20 24  1  0
 21 19  1  0
 24 25  1  0
 24 23  1  0
 26 25  1  0
 27 39  1  0
 27 18  1  0
 28 31  1  0
 28 27  1  0
 29 28  1  0
 30 29  2  0
 32 33  1  1
 32 29  1  0
 34 35  1  0
 34 32  1  0
 35 32  1  0
 39 37  1  6
 39 38  1  0
 39 36  1  0
 40  1  1  0
 41 46  1  0
 41 49  1  0
 42 41  1  0
 43 44  1  0
 43 42  1  0
 44 45  1  0
 45 46  1  0
 47 55  1  0
 47 57  2  0
 48 57  2  0
 48 60  1  0
 49 59  1  0
 50 54  1  0
 51 60  1  0
 51 50  1  0
 52 53  1  0
 53 56  1  0
 54 40  1  0
 54 53  1  0
 58 49  2  0
 58 47  1  0
 59 48  1  0
 60 52  1  0
 61 44  1  0
 62 61  1  0
 63 62  2  0
 64 65  2  0
 64 63  1  0
 65 66  1  0
 66 67  1  0
 66 61  2  0
 67 68  1  0
 69 67  1  0
 70 63  1  0
 70 75  1  0
 71 70  2  0
 72 71  1  0
 72 73  2  0
 73 74  1  0
 74 75  2  0
 76 77  1  0
 76 71  1  0
M  ISO  4  40 101  41 100  49 100  54 101
M  END
>  <TORSDO>  (32) 
F 14

>  <SCORE>  (32) 
-15.251

>  <name>  (32) 
31

>  <ligand_id>  (32) 
31

>  <original_smiles>  (32) 
[H]Oc1c([H])c([H])c([H])c([H])c1-c1nnc(N([H])[H])c(N2C([H])([H])C([H])([H])N(c3nc(N4C([H])([H])C([H])([H])C([H])(Oc5c([H])c(-c6sc([H])nc6C([H])([H])[H])c([H])c([H])c5C([H])([H])N([H])C(=O)C5([H])N(C(=O)C([H])(N([H])C(=O)C6(F)C([H])([H])C6([H])[H])C(C([H])([H])[H])(C([H])([H])[H])C([H])([H])[H])C([H])([H])C([H])(O[H])C5([H])[H])C([H])(C([H])([H])[H])C4([H])[H])nc(C([H])([H])[H])n3)C([H])([H])C2([H])[H])c1[H]

>  <smiles>  (32) 
[H]Oc1c([H])c([H])c([H])c([H])c1-c1nnc(N([H])[H])c(N2C([H])([H])C([H])([H])N(c3nc(N4C([H])([H])C([H])([H])C([H])(Oc5c([H])c(-c6sc([H])nc6C([H])([H])[H])c([H])c([H])c5C([H])([H])N([H])C(=O)C5([H])N(C(=O)C([H])(N([H])C(=O)C6(F)C([H])([H])C6([H])[H])C(C([H])([H])[H])(C([H])([H])[H])C([H])([H])[H])C([H])([H])C([H])(O[H])C5([H])[H])C([H])(C([H])([H])[H])C4([H])[H])nc(C([H])([H])[H])n3)C([H])([H])C2([H])[H])c1[H]

$$$$
32:0:0
     RDKit          3D

 79 87  0  0  1  0  0  0  0  0999 V2000
  -38.6320   14.0070  -23.7570 O   0  0  0  0  0  0  0  0  0  0  0  0
  -40.1960   17.7570  -25.2260 C   0  0  0  0  0  3  0  0  0  0  0  0
  -41.4870   16.6040  -26.9040 C   0  0  0  0  0  3  0  0  0  0  0  0
  -40.4130   17.4610  -26.5830 C   0  0  0  0  0  0  0  0  0  0  0  0
  -41.0820   17.1800  -24.2810 C   0  0  0  0  0  0  0  0  0  0  0  0
  -38.5320   16.2570  -22.9350 C   0  0  0  0  0  2  0  0  0  0  0  0
  -40.6530   14.7280  -22.6780 C   0  0  0  0  0  2  0  0  0  0  0  0
  -39.4410   17.4140  -22.4710 C   0  0  0  0  0  2  0  0  0  0  0  0
  -41.3470   16.0090  -22.1730 C   0  0  0  0  0  2  0  0  0  0  0  0
  -39.1150   14.8370  -22.6880 C   0  0  0  0  0  3  0  0  0  0  0  0
  -42.3720   16.1780  -25.9780 N   0  0  0  0  0  0  0  0  0  0  0  0
  -42.1820   16.4950  -24.6960 N   0  0  0  0  0  0  0  0  0  0  0  0
  -40.8260   17.1810  -22.8860 N   0  0  0  0  0  0  0  0  0  0  0  0
  -40.2920   19.0640  -28.3990 N   0  0  0  0  0  0  0  0  0  0  0  0
  -39.9140   19.4910  -29.7630 C   0  0  0  0  0  2  0  0  0  0  0  0
  -41.1400   19.4100  -30.7310 C   0  0  0  0  0  2  0  0  0  0  0  0
  -42.2390   18.6070  -30.1740 N   0  0  0  0  0  0  0  0  0  0  0  0
  -42.7240   18.9880  -28.8490 C   0  0  0  0  0  2  0  0  0  0  0  0
  -41.6040   19.5860  -27.9790 C   0  0  0  0  0  2  0  0  0  0  0  0
  -39.6640   18.1190  -27.6530 C   0  0  0  0  0  3  0  0  0  0  0  0
  -38.3810   17.7930  -27.8820 N   0  0  0  0  0  0  0  0  0  0  0  0
  -37.9360   17.0210  -27.4060 H   0  0  0  0  0  0  0  0  0  0  0  0
  -37.8020   18.3520  -28.4870 H   0  0  0  0  0  0  0  0  0  0  0  0
  -43.1630   18.0320  -31.0770 C   0  0  0  0  0  0  0  0  0  0  0  0
  -44.4630   18.5480  -31.2770 C   0  0  0  0  0  3  0  0  0  0  0  0
  -45.3440   17.8850  -32.1740 C   0  0  0  0  0  0  0  0  0  0  0  0
  -44.9120   16.7800  -32.8410 N   0  0  0  0  0  0  0  0  0  0  0  0
  -43.6870   16.2760  -32.6680 N   0  0  0  0  0  0  0  0  0  0  0  0
  -42.8340   16.8670  -31.8090 C   0  0  0  0  0  0  0  0  0  0  0  0
  -41.6140   16.2350  -31.6370 N   0  0  0  0  0  0  0  0  0  0  0  0
  -40.9000   16.7310  -31.1250 H   0  0  0  0  0  0  0  0  0  0  0  0
  -41.3060   15.5620  -32.3240 H   0  0  0  0  0  0  0  0  0  0  0  0
  -46.7570   18.3250  -32.4420 C   0  0  0  0  0  0  0  0  0  0  0  0
  -47.6730   17.6400  -33.3070 C   0  0  0  0  0  0  0  0  0  0  0  0
  -48.9900   18.1090  -33.4940 C   0  0  0  0  0  3  0  0  0  0  0  0
  -49.4410   19.2630  -32.8380 C   0  0  0  0  0  3  0  0  0  0  0  0
  -48.5670   19.9550  -31.9880 C   0  0  0  0  0  3  0  0  0  0  0  0
  -47.2520   19.4930  -31.8020 C   0  0  0  0  0  3  0  0  0  0  0  0
  -47.3480   16.5060  -33.9950 O   0  0  0  0  0  0  0  0  0  0  0  0
  -46.4340   16.2680  -33.8350 H   0  0  0  0  0  0  0  0  0  0  0  0
  -37.3530   13.4940  -23.6850 C   0  0  0  0  0  0  0  0  0  0  0  0
  -36.6220   13.4390  -22.4720 C   0  0  0  0  0  3  0  0  0  0  0  0
  -35.3540   12.8470  -22.3980 C   0  0  0  0  0  0  0  0  0  0  0  0
  -35.4700   12.4000  -24.7940 C   0  0  0  0  0  3  0  0  0  0  0  0
  -36.7680   12.9600  -24.8600 C   0  0  0  0  0  0  0  0  0  0  0  0
  -34.7710   12.3460  -23.5770 C   0  0  0  0  0  3  0  0  0  0  0  0
  -35.1550   12.2500  -19.8980 C   0  0  0  0  0  0  0  0  0  0  0  0
  -33.0160   12.7210  -19.3200 C   0  0  0  0  0  3  0  0  0  0  0  0
  -34.6800   12.7230  -21.1090 C   0  0  0  0  0  0  0  0  0  0  0  0
  -34.1900   12.2520  -18.8910 N   0  0  0  0  0  0  0  0  0  0  0  0
  -33.0100   13.2180  -20.9980 S   0  0  0  0  0  0  0  0  0  0  0  0
  -36.5230   11.7320  -19.5660 C   0  0  0  0  0  1  0  0  0  0  0  0
  -37.5420   12.9750  -26.1800 C   0  0  0  0  0  2  0  0  0  0  0  0
  -36.1670   13.7150  -28.1110 C   0  0  0  0  0  0  0  0  0  0  0  0
  -36.4380   14.9100  -27.9690 O   0  0  0  0  0  0  0  0  0  0  0  0
  -36.7080   12.7520  -27.3590 N   0  0  0  0  0  0  0  0  0  0  0  0
  -36.4490   11.7950  -27.5580 H   0  0  0  0  0  0  0  0  0  0  0  0
  -36.0680   14.4460  -31.1340 C   0  0  0  0  0  0  0  0  0  0  0  0
  -35.1180   13.2620  -29.1430 C   0  0  0  0  0  3  0  0  0  0  0  0
  -33.6180   14.4810  -30.5970 C   0  0  0  0  0  2  0  0  0  0  0  0
  -35.0190   14.1330  -30.3310 N   0  0  0  0  0  0  0  0  0  0  0  0
  -37.1970   13.9800  -30.9370 O   0  0  0  0  0  0  0  0  0  0  0  0
  -33.7230   13.2940  -28.4950 C   0  0  0  0  0  2  0  0  0  0  0  0
  -32.7800   13.6540  -29.6250 C   0  0  0  0  0  3  0  0  0  0  0  0
  -32.3440   12.4840  -30.3000 O   0  0  0  0  0  0  0  0  0  0  0  0
  -33.1090   12.0250  -30.6320 H   0  0  0  0  0  0  0  0  0  0  0  0
  -35.8650   15.3750  -32.3600 C   0  0  0  0  0  3  0  0  0  0  0  0
  -36.6280   14.7930  -33.4770 N   0  0  0  0  0  0  0  0  0  0  0  0
  -36.1230   14.2700  -34.6040 C   0  0  0  0  0  0  0  0  0  0  0  0
  -34.9160   14.2940  -34.8560 O   0  0  0  0  0  0  0  0  0  0  0  0
  -37.6200   14.6670  -33.3350 H   0  0  0  0  0  0  0  0  0  0  0  0
  -37.1250   13.6450  -35.5390 C   0  0  1  0  0  0  0  0  0  0  0  0
  -38.3900   13.4960  -34.9870 F   0  0  0  0  0  0  0  0  0  0  0  0
  -37.0540   13.9550  -37.0160 C   0  0  0  0  0  2  0  0  0  0  0  0
  -36.6790   12.5790  -36.5150 C   0  0  0  0  0  2  0  0  0  0  0  0
  -35.6440   17.4540  -30.8410 C   0  0  0  0  0  1  0  0  0  0  0  0
  -35.8390   17.7350  -33.2970 C   0  0  0  0  0  1  0  0  0  0  0  0
  -37.8370   17.0260  -31.9670 C   0  0  0  0  0  1  0  0  0  0  0  0
  -36.3060   16.8650  -32.1100 C   0  0  1  0  0  0  0  0  0  0  0  0
  1 41  1  0
  2  5  1  0
  3  4  1  0
  3 11  2  0
  4  2  2  0
  5 13  1  0
  6 10  1  0
  6  8  1  0
  7  9  1  0
 10  1  1  0
 10  7  1  0
 11 12  1  0
 12  5  2  0
 13  8  1  0
 13  9  1  0
 14 19  1  0
 14 20  1  0
 15 14  1  0
 16 17  1  0
 16 15  1  0
 17 18  1  0
 18 19  1  0
 20 21  1  0
 20  4  1  0
 21 22  1  0
 23 21  1  0
 24 17  1  0
 25 24  1  0
 26 25  2  0
 27 28  2  0
 27 26  1  0
 28 29  1  0
 29 30  1  0
 29 24  2  0
 30 31  1  0
 32 30  1  0
 33 26  1  0
 33 38  1  0
 34 33  2  0
 35 34  1  0
 35 36  2  0
 36 37  1  0
 37 38  2  0
 39 40  1  0
 39 34  1  0
 41 42  1  0
 42 43  2  0
 43 49  1  0
 44 46  2  0
 45 44  1  0
 45 41  2  0
 46 43  1  0
 47 52  1  0
 47 50  1  0
 48 50  2  0
 49 51  1  0
 49 47  2  0
 51 48  1  0
 53 45  1  0
 54 55  2  0
 54 56  1  0
 56 53  1  0
 57 56  1  0
 58 62  2  0
 58 61  1  0
 59 63  1  0
 59 54  1  0
 60 61  1  0
 60 64  1  0
 61 59  1  0
 64 65  1  0
 64 63  1  0
 66 65  1  0
 67 79  1  0
 67 58  1  0
 68 71  1  0
 68 67  1  0
 69 68  1  0
 70 69  2  0
 72 73  1  1
 72 69  1  0
 74 75  1  0
 74 72  1  0
 75 72  1  0
 79 77  1  6
 79 78  1  0
 79 76  1  0
M  ISO  4   1 101  10 101  14 100  20 100
M  END
>  <TORSDO>  (33) 
F 15

>  <SCORE>  (33) 
-15.110

>  <name>  (33) 
32

>  <ligand_id>  (33) 
32

>  <original_smiles>  (33) 
[H]Oc1c([H])c([H])c([H])c([H])c1-c1nnc(N([H])[H])c(N2C([H])([H])C([H])([H])N(C(c3c([H])nnc(N4C([H])([H])C([H])([H])C([H])(Oc5c([H])c(-c6sc([H])nc6C([H])([H])[H])c([H])c([H])c5C([H])([H])N([H])C(=O)C5([H])N(C(=O)C([H])(N([H])C(=O)C6(F)C([H])([H])C6([H])[H])C(C([H])([H])[H])(C([H])([H])[H])C([H])([H])[H])C([H])([H])C([H])(O[H])C5([H])[H])C([H])([H])C4([H])[H])c3[H])=[N+]([H])[H])C([H])([H])C2([H])[H])c1[H]

>  <smiles>  (33) 
[H]Oc1c([H])c([H])c([H])c([H])c1-c1nnc(N([H])[H])c(N2C([H])([H])C([H])([H])N(C(c3c([H])nnc(N4C([H])([H])C([H])([H])C([H])(Oc5c([H])c(-c6sc([H])nc6C([H])([H])[H])c([H])c([H])c5C([H])([H])N([H])C(=O)C5([H])N(C(=O)C([H])(N([H])C(=O)C6(F)C([H])([H])C6([H])[H])C(C([H])([H])[H])(C([H])([H])[H])C([H])([H])[H])C([H])([H])C([H])(O[H])C5([H])[H])C([H])([H])C4([H])[H])c3[H])=[N+]([H])[H])C([H])([H])C2([H])[H])c1[H]

$$$$
33:0:0
     RDKit          3D

 78 86  0  0  1  0  0  0  0  0999 V2000
  -37.4470   13.5360  -23.7570 C   0  0  0  0  0  0  0  0  0  0  0  0
  -36.7770   13.4120  -22.5170 C   0  0  0  0  0  3  0  0  0  0  0  0
  -35.4970   12.8260  -22.4230 C   0  0  0  0  0  0  0  0  0  0  0  0
  -35.5810   12.3700  -24.8200 C   0  0  0  0  0  3  0  0  0  0  0  0
  -36.8570   12.9730  -24.9150 C   0  0  0  0  0  0  0  0  0  0  0  0
  -34.9010   12.3200  -23.5940 C   0  0  0  0  0  3  0  0  0  0  0  0
  -35.2950   12.2630  -19.9130 C   0  0  0  0  0  0  0  0  0  0  0  0
  -33.1350   12.6720  -19.3520 C   0  0  0  0  0  3  0  0  0  0  0  0
  -34.8180   12.7040  -21.1310 C   0  0  0  0  0  0  0  0  0  0  0  0
  -34.3200   12.2490  -18.9100 N   0  0  0  0  0  0  0  0  0  0  0  0
  -33.1250   13.1390  -21.0400 S   0  0  0  0  0  0  0  0  0  0  0  0
  -36.6720   11.7840  -19.5670 C   0  0  0  0  0  1  0  0  0  0  0  0
  -37.6140   12.9980  -26.2450 C   0  0  0  0  0  2  0  0  0  0  0  0
  -36.2090   13.7240  -28.1470 C   0  0  0  0  0  0  0  0  0  0  0  0
  -36.4600   14.9210  -27.9940 O   0  0  0  0  0  0  0  0  0  0  0  0
  -36.7690   12.7600  -27.4120 N   0  0  0  0  0  0  0  0  0  0  0  0
  -36.5410   11.8000  -27.6270 H   0  0  0  0  0  0  0  0  0  0  0  0
  -36.1210   14.4380  -31.1680 C   0  0  0  0  0  0  0  0  0  0  0  0
  -35.1620   13.2670  -29.1760 C   0  0  0  0  0  3  0  0  0  0  0  0
  -33.6680   14.4800  -30.6380 C   0  0  0  0  0  2  0  0  0  0  0  0
  -35.0700   14.1320  -30.3680 N   0  0  0  0  0  0  0  0  0  0  0  0
  -37.2490   13.9720  -30.9660 O   0  0  0  0  0  0  0  0  0  0  0  0
  -33.7680   13.3050  -28.5280 C   0  0  0  0  0  2  0  0  0  0  0  0
  -32.8280   13.6580  -29.6600 C   0  0  0  0  0  3  0  0  0  0  0  0
  -32.3970   12.4820  -30.3260 O   0  0  0  0  0  0  0  0  0  0  0  0
  -33.1640   12.0210  -30.6470 H   0  0  0  0  0  0  0  0  0  0  0  0
  -35.9230   15.3590  -32.4020 C   0  0  0  0  0  3  0  0  0  0  0  0
  -36.6820   14.7630  -33.5150 N   0  0  0  0  0  0  0  0  0  0  0  0
  -36.1730   14.2250  -34.6320 C   0  0  0  0  0  0  0  0  0  0  0  0
  -34.9640   14.2470  -34.8770 O   0  0  0  0  0  0  0  0  0  0  0  0
  -37.6760   14.6440  -33.3720 H   0  0  0  0  0  0  0  0  0  0  0  0
  -37.1700   13.5890  -35.5650 C   0  0  1  0  0  0  0  0  0  0  0  0
  -38.4380   13.4510  -35.0220 F   0  0  0  0  0  0  0  0  0  0  0  0
  -37.0870   13.8780  -37.0450 C   0  0  0  0  0  2  0  0  0  0  0  0
  -36.7200   12.5080  -36.5220 C   0  0  0  0  0  2  0  0  0  0  0  0
  -35.7030   17.4530  -30.9050 C   0  0  0  0  0  1  0  0  0  0  0  0
  -35.9210   17.7040  -33.3660 C   0  0  0  0  0  1  0  0  0  0  0  0
  -37.8980   16.9990  -32.0070 C   0  0  0  0  0  1  0  0  0  0  0  0
  -36.3700   16.8480  -32.1630 C   0  0  1  0  0  0  0  0  0  0  0  0
  -38.6660   14.1730  -23.8940 O   0  0  0  0  0  0  0  0  0  0  0  0
  -39.2670   19.8330  -26.2610 C   0  0  0  0  0  0  0  0  0  0  0  0
  -38.1830   19.1330  -25.6790 C   0  0  0  0  0  0  0  0  0  0  0  0
  -39.4320   18.9000  -23.7860 C   0  0  0  0  0  0  0  0  0  0  0  0
  -38.0120   16.2500  -22.6340 C   0  0  0  0  0  2  0  0  0  0  0  0
  -40.3180   15.8390  -23.5960 C   0  0  0  0  0  2  0  0  0  0  0  0
  -38.5960   17.4980  -21.9430 C   0  0  0  0  0  2  0  0  0  0  0  0
  -40.7940   17.1050  -22.8490 C   0  0  0  0  0  2  0  0  0  0  0  0
  -39.0860   15.1680  -22.9430 C   0  0  0  0  0  3  0  0  0  0  0  0
  -36.9320   18.6990  -26.4310 C   0  0  0  0  0  1  0  0  0  0  0  0
  -40.3190   20.1900  -25.4720 N   0  0  0  0  0  0  0  0  0  0  0  0
  -38.2730   18.6980  -24.4090 N   0  0  0  0  0  0  0  0  0  0  0  0
  -40.4360   19.6630  -24.2420 N   0  0  0  0  0  0  0  0  0  0  0  0
  -39.7040   18.0740  -22.7000 N   0  0  0  0  0  0  0  0  0  0  0  0
  -40.2640   19.5570  -28.4860 N   0  0  0  0  0  0  0  0  0  0  0  0
  -40.0470   19.4660  -29.9400 C   0  0  0  0  0  2  0  0  0  0  0  0
  -41.3230   19.5270  -30.7810 C   0  0  0  0  0  2  0  0  0  0  0  0
  -42.3070   18.6180  -30.2310 N   0  0  0  0  0  0  0  0  0  0  0  0
  -42.7540   18.9010  -28.8800 C   0  0  0  0  0  2  0  0  0  0  0  0
  -41.6380   19.4250  -27.9520 C   0  0  0  0  0  2  0  0  0  0  0  0
  -39.2840   20.1360  -27.7400 C   0  0  0  0  0  0  0  0  0  0  0  0
  -38.3240   20.7450  -28.2290 O   0  0  0  0  0  0  0  0  0  0  0  0
  -43.2170   18.0260  -31.1330 C   0  0  0  0  0  0  0  0  0  0  0  0
  -44.5340   18.4950  -31.3260 C   0  0  0  0  0  3  0  0  0  0  0  0
  -45.3830   17.8100  -32.2370 C   0  0  0  0  0  0  0  0  0  0  0  0
  -44.9090   16.7240  -32.9100 N   0  0  0  0  0  0  0  0  0  0  0  0
  -43.6680   16.2630  -32.7350 N   0  0  0  0  0  0  0  0  0  0  0  0
  -42.8390   16.8860  -31.8750 C   0  0  0  0  0  0  0  0  0  0  0  0
  -41.5840   16.3280  -31.7070 N   0  0  0  0  0  0  0  0  0  0  0  0
  -41.1420   16.6500  -30.8530 H   0  0  0  0  0  0  0  0  0  0  0  0
  -41.5020   15.3370  -31.8800 H   0  0  0  0  0  0  0  0  0  0  0  0
  -46.8100   18.2050  -32.5100 C   0  0  0  0  0  0  0  0  0  0  0  0
  -47.7040   17.4770  -33.3620 C   0  0  0  0  0  0  0  0  0  0  0  0
  -49.0350   17.8980  -33.5520 C   0  0  0  0  0  3  0  0  0  0  0  0
  -49.5240   19.0470  -32.9160 C   0  0  0  0  0  3  0  0  0  0  0  0
  -48.6710   19.7850  -32.0840 C   0  0  0  0  0  3  0  0  0  0  0  0
  -47.3420   19.3660  -31.8890 C   0  0  0  0  0  3  0  0  0  0  0  0
  -47.3440   16.3430  -34.0360 O   0  0  0  0  0  0  0  0  0  0  0  0
  -46.4230   16.1360  -33.8750 H   0  0  0  0  0  0  0  0  0  0  0  0
  1  2  1  0
  2  3  2  0
  3  9  1  0
  4  6  2  0
  5  4  1  0
  5  1  2  0
  6  3  1  0
  7 12  1  0
  7 10  1  0
  8 10  2  0
  9 11  1  0
  9  7  2  0
 11  8  1  0
 13  5  1  0
 14 15  2  0
 14 16  1  0
 16 13  1  0
 17 16  1  0
 18 22  2  0
 18 21  1  0
 19 23  1  0
 19 14  1  0
 20 21  1  0
 20 24  1  0
 21 19  1  0
 24 25  1  0
 24 23  1  0
 26 25  1  0
 27 39  1  0
 27 18  1  0
 28 31  1  0
 28 27  1  0
 29 28  1  0
 30 29  2  0
 32 33  1  1
 32 29  1  0
 34 35  1  0
 34 32  1  0
 35 32  1  0
 39 37  1  6
 39 38  1  0
 39 36  1  0
 40  1  1  0
 41 42  2  0
 41 50  1  0
 42 51  1  0
 43 53  1  0
 44 46  1  0
 45 48  1  0
 45 47  1  0
 47 53  1  0
 48 40  1  0
 48 44  1  0
 49 42  1  0
 50 52  2  0
 51 43  2  0
 52 43  1  0
 53 46  1  0
 54 59  1  0
 54 60  1  0
 55 54  1  0
 56 57  1  0
 56 55  1  0
 57 58  1  0
 58 59  1  0
 60 41  1  0
 61 60  2  0
 62 57  1  0
 63 62  1  0
 64 63  2  0
 65 66  2  0
 65 64  1  0
 66 67  1  0
 67 68  1  0
 67 62  2  0
 68 69  1  0
 70 68  1  0
 71 64  1  0
 71 76  1  0
 72 71  2  0
 73 72  1  0
 73 74  2  0
 74 75  1  0
 75 76  2  0
 77 78  1  0
 77 72  1  0
M  ISO  4  40 101  48 101  54 100  60 100
M  END
>  <TORSDO>  (34) 
F 15

>  <SCORE>  (34) 
-15.078

>  <name>  (34) 
33

>  <ligand_id>  (34) 
33

>  <original_smiles>  (34) 
[H]Oc1c([H])c([H])c([H])c([H])c1-c1nnc(N([H])[H])c(N2C([H])([H])C([H])([H])N(C(=O)c3nnc(N4C([H])([H])C([H])([H])C([H])(Oc5c([H])c(-c6sc([H])nc6C([H])([H])[H])c([H])c([H])c5C([H])([H])N([H])C(=O)C5([H])N(C(=O)C([H])(N([H])C(=O)C6(F)C([H])([H])C6([H])[H])C(C([H])([H])[H])(C([H])([H])[H])C([H])([H])[H])C([H])([H])C([H])(O[H])C5([H])[H])C([H])([H])C4([H])[H])nc3C([H])([H])[H])C([H])([H])C2([H])[H])c1[H]

>  <smiles>  (34) 
[H]Oc1c([H])c([H])c([H])c([H])c1-c1nnc(N([H])[H])c(N2C([H])([H])C([H])([H])N(C(=O)c3nnc(N4C([H])([H])C([H])([H])C([H])(Oc5c([H])c(-c6sc([H])nc6C([H])([H])[H])c([H])c([H])c5C([H])([H])N([H])C(=O)C5([H])N(C(=O)C([H])(N([H])C(=O)C6(F)C([H])([H])C6([H])[H])C(C([H])([H])[H])(C([H])([H])[H])C([H])([H])[H])C([H])([H])C([H])(O[H])C5([H])[H])C([H])([H])C4([H])[H])nc3C([H])([H])[H])C([H])([H])C2([H])[H])c1[H]

$$$$
34:0:0
     RDKit          3D

 74 82  0  0  1  0  0  0  0  0999 V2000
  -37.3890   13.4370  -23.6690 C   0  0  0  0  0  0  0  0  0  0  0  0
  -36.7110   13.3490  -22.4370 C   0  0  0  0  0  3  0  0  0  0  0  0
  -35.4210   12.7940  -22.3600 C   0  0  0  0  0  0  0  0  0  0  0  0
  -35.5170   12.3470  -24.7660 C   0  0  0  0  0  3  0  0  0  0  0  0
  -36.8110   12.9110  -24.8440 C   0  0  0  0  0  0  0  0  0  0  0  0
  -34.8270   12.3060  -23.5410 C   0  0  0  0  0  3  0  0  0  0  0  0
  -35.1950   12.2540  -19.8540 C   0  0  0  0  0  0  0  0  0  0  0  0
  -33.0410   12.6840  -19.3060 C   0  0  0  0  0  3  0  0  0  0  0  0
  -34.7280   12.6940  -21.0770 C   0  0  0  0  0  0  0  0  0  0  0  0
  -34.2180   12.2490  -18.8570 N   0  0  0  0  0  0  0  0  0  0  0  0
  -33.0440   13.1540  -20.9930 S   0  0  0  0  0  0  0  0  0  0  0  0
  -36.5670   11.7700  -19.5000 C   0  0  0  0  0  1  0  0  0  0  0  0
  -37.5910   12.9390  -26.1590 C   0  0  0  0  0  2  0  0  0  0  0  0
  -36.2080   13.6910  -28.0700 C   0  0  0  0  0  0  0  0  0  0  0  0
  -36.4590   14.8870  -27.9050 O   0  0  0  0  0  0  0  0  0  0  0  0
  -36.7600   12.7220  -27.3370 N   0  0  0  0  0  0  0  0  0  0  0  0
  -36.5230   11.7650  -27.5580 H   0  0  0  0  0  0  0  0  0  0  0  0
  -36.1460   14.4280  -31.0890 C   0  0  0  0  0  0  0  0  0  0  0  0
  -35.1670   13.2460  -29.1110 C   0  0  0  0  0  3  0  0  0  0  0  0
  -33.6880   14.4710  -30.5790 C   0  0  0  0  0  2  0  0  0  0  0  0
  -35.0850   14.1170  -30.2980 N   0  0  0  0  0  0  0  0  0  0  0  0
  -37.2710   13.9600  -30.8810 O   0  0  0  0  0  0  0  0  0  0  0  0
  -33.7670   13.2830  -28.4760 C   0  0  0  0  0  2  0  0  0  0  0  0
  -32.8380   13.6440  -29.6160 C   0  0  0  0  0  3  0  0  0  0  0  0
  -32.4050   12.4740  -30.2920 O   0  0  0  0  0  0  0  0  0  0  0  0
  -33.1720   12.0070  -30.6090 H   0  0  0  0  0  0  0  0  0  0  0  0
  -35.9580   15.3550  -32.3200 C   0  0  0  0  0  3  0  0  0  0  0  0
  -36.7110   14.7550  -33.4350 N   0  0  0  0  0  0  0  0  0  0  0  0
  -36.1950   14.2100  -34.5460 C   0  0  0  0  0  0  0  0  0  0  0  0
  -34.9850   14.2270  -34.7840 O   0  0  0  0  0  0  0  0  0  0  0  0
  -37.7060   14.6400  -33.2990 H   0  0  0  0  0  0  0  0  0  0  0  0
  -37.1890   13.5730  -35.4810 C   0  0  1  0  0  0  0  0  0  0  0  0
  -38.4630   13.4490  -34.9490 F   0  0  0  0  0  0  0  0  0  0  0  0
  -37.0920   13.8460  -36.9640 C   0  0  0  0  0  2  0  0  0  0  0  0
  -36.7390   12.4780  -36.4250 C   0  0  0  0  0  2  0  0  0  0  0  0
  -35.7430   17.4550  -30.8290 C   0  0  0  0  0  1  0  0  0  0  0  0
  -36.0000   17.7000  -33.2860 C   0  0  0  0  0  1  0  0  0  0  0  0
  -37.9490   16.9680  -31.8970 C   0  0  0  0  0  1  0  0  0  0  0  0
  -36.4210   16.8380  -32.0760 C   0  0  1  0  0  0  0  0  0  0  0  0
  -38.5860   14.0920  -23.7110 O   0  0  0  0  0  0  0  0  0  0  0  0
  -37.3320   17.6240  -23.8160 C   0  0  0  0  0  3  0  0  0  0  0  0
  -37.3840   16.2480  -23.5240 C   0  0  0  0  0  3  0  0  0  0  0  0
  -39.6550   16.0760  -24.4290 C   0  0  0  0  0  3  0  0  0  0  0  0
  -38.4440   18.1940  -24.4440 C   0  0  0  0  0  0  0  0  0  0  0  0
  -39.5780   17.4430  -24.7130 C   0  0  0  0  0  0  0  0  0  0  0  0
  -38.5280   15.4580  -23.8600 C   0  0  0  0  0  0  0  0  0  0  0  0
  -38.5490   19.5770  -25.0210 C   0  0  0  0  0  2  0  0  0  0  0  0
  -40.5900   18.2360  -25.4640 C   0  0  0  0  0  2  0  0  0  0  0  0
  -39.7800   19.4650  -25.9680 C   0  0  0  0  0  3  0  0  0  0  0  0
  -40.3760   19.3290  -28.3900 N   0  0  0  0  0  0  0  0  0  0  0  0
  -40.0420   19.3490  -29.8260 C   0  0  0  0  0  2  0  0  0  0  0  0
  -41.2790   19.4120  -30.7540 C   0  0  0  0  0  2  0  0  0  0  0  0
  -42.3590   18.5840  -30.2240 N   0  0  0  0  0  0  0  0  0  0  0  0
  -42.7670   18.7710  -28.8390 C   0  0  0  0  0  2  0  0  0  0  0  0
  -41.7760   19.6670  -28.0820 C   0  0  0  0  0  2  0  0  0  0  0  0
  -39.4000   19.2660  -27.4570 C   0  0  0  0  0  0  0  0  0  0  0  0
  -38.2220   19.0750  -27.7760 O   0  0  0  0  0  0  0  0  0  0  0  0
  -43.2660   17.9970  -31.1290 C   0  0  0  0  0  0  0  0  0  0  0  0
  -44.5720   18.4910  -31.3230 C   0  0  0  0  0  3  0  0  0  0  0  0
  -45.4300   17.8260  -32.2390 C   0  0  0  0  0  0  0  0  0  0  0  0
  -44.9740   16.7300  -32.9100 N   0  0  0  0  0  0  0  0  0  0  0  0
  -43.7440   16.2410  -32.7280 N   0  0  0  0  0  0  0  0  0  0  0  0
  -42.9060   16.8490  -31.8660 C   0  0  0  0  0  0  0  0  0  0  0  0
  -41.6670   16.2590  -31.6920 N   0  0  0  0  0  0  0  0  0  0  0  0
  -41.2070   16.5870  -30.8520 H   0  0  0  0  0  0  0  0  0  0  0  0
  -41.6320   15.2590  -31.8240 H   0  0  0  0  0  0  0  0  0  0  0  0
  -46.8450   18.2530  -32.5190 C   0  0  0  0  0  0  0  0  0  0  0  0
  -47.7560   17.5370  -33.3630 C   0  0  0  0  0  0  0  0  0  0  0  0
  -49.0760   17.9880  -33.5640 C   0  0  0  0  0  3  0  0  0  0  0  0
  -49.5370   19.1580  -32.9430 C   0  0  0  0  0  3  0  0  0  0  0  0
  -48.6680   19.8850  -32.1190 C   0  0  0  0  0  3  0  0  0  0  0  0
  -47.3480   19.4370  -31.9170 C   0  0  0  0  0  3  0  0  0  0  0  0
  -47.4210   16.3860  -34.0200 O   0  0  0  0  0  0  0  0  0  0  0  0
  -46.5060   16.1580  -33.8470 H   0  0  0  0  0  0  0  0  0  0  0  0
  1  2  1  0
  2  3  2  0
  3  9  1  0
  4  6  2  0
  5  4  1  0
  5  1  2  0
  6  3  1  0
  7 12  1  0
  7 10  1  0
  8 10  2  0
  9 11  1  0
  9  7  2  0
 11  8  1  0
 13  5  1  0
 14 15  2  0
 14 16  1  0
 16 13  1  0
 17 16  1  0
 18 22  2  0
 18 21  1  0
 19 23  1  0
 19 14  1  0
 20 21  1  0
 20 24  1  0
 21 19  1  0
 24 25  1  0
 24 23  1  0
 26 25  1  0
 27 39  1  0
 27 18  1  0
 28 31  1  0
 28 27  1  0
 29 28  1  0
 30 29  2  0
 32 33  1  1
 32 29  1  0
 34 35  1  0
 34 32  1  0
 35 32  1  0
 39 37  1  6
 39 38  1  0
 39 36  1  0
 40  1  1  0
 41 42  1  0
 43 46  1  0
 44 41  2  0
 45 44  1  0
 45 43  2  0
 46 40  1  0
 46 42  2  0
 47 44  1  0
 48 45  1  0
 49 56  1  0
 49 48  1  0
 49 47  1  0
 50 55  1  0
 50 56  1  0
 51 50  1  0
 52 53  1  0
 52 51  1  0
 53 54  1  0
 54 55  1  0
 57 56  2  0
 58 53  1  0
 59 58  1  0
 60 59  2  0
 61 62  2  0
 61 60  1  0
 62 63  1  0
 63 64  1  0
 63 58  2  0
 64 65  1  0
 66 64  1  0
 67 60  1  0
 67 72  1  0
 68 67  2  0
 69 68  1  0
 69 70  2  0
 70 71  1  0
 71 72  2  0
 73 74  1  0
 73 68  1  0
M  ISO  4  40 101  46 101  50 100  56 100
M  END
>  <TORSDO>  (35) 
F 15

>  <SCORE>  (35) 
-15.009

>  <name>  (35) 
34

>  <ligand_id>  (35) 
34

>  <original_smiles>  (35) 
[H]Oc1c([H])c([H])c([H])c([H])c1-c1nnc(N([H])[H])c(N2C([H])([H])C([H])([H])N(C(=O)C3([H])C([H])([H])c4c([H])c([H])c(Oc5c([H])c(-c6sc([H])nc6C([H])([H])[H])c([H])c([H])c5C([H])([H])N([H])C(=O)C5([H])N(C(=O)C([H])(N([H])C(=O)C6(F)C([H])([H])C6([H])[H])C(C([H])([H])[H])(C([H])([H])[H])C([H])([H])[H])C([H])([H])C([H])(O[H])C5([H])[H])c([H])c4C3([H])[H])C([H])([H])C2([H])[H])c1[H]

>  <smiles>  (35) 
[H]Oc1c([H])c([H])c([H])c([H])c1-c1nnc(N([H])[H])c(N2C([H])([H])C([H])([H])N(C(=O)C3([H])C([H])([H])c4c([H])c([H])c(Oc5c([H])c(-c6sc([H])nc6C([H])([H])[H])c([H])c([H])c5C([H])([H])N([H])C(=O)C5([H])N(C(=O)C([H])(N([H])C(=O)C6(F)C([H])([H])C6([H])[H])C(C([H])([H])[H])(C([H])([H])[H])C([H])([H])[H])C([H])([H])C([H])(O[H])C5([H])[H])c([H])c4C3([H])[H])C([H])([H])C2([H])[H])c1[H]

$$$$
35:0:0
     RDKit          3D

 75 83  0  0  1  0  0  0  0  0999 V2000
  -37.4310   13.4990  -23.6790 C   0  0  0  0  0  0  0  0  0  0  0  0
  -36.7310   13.4460  -22.4550 C   0  0  0  0  0  3  0  0  0  0  0  0
  -35.4360   12.8910  -22.3750 C   0  0  0  0  0  0  0  0  0  0  0  0
  -35.5290   12.4390  -24.7760 C   0  0  0  0  0  3  0  0  0  0  0  0
  -36.8370   12.9670  -24.8560 C   0  0  0  0  0  0  0  0  0  0  0  0
  -34.8370   12.4100  -23.5550 C   0  0  0  0  0  3  0  0  0  0  0  0
  -35.1830   12.2990  -19.8790 C   0  0  0  0  0  0  0  0  0  0  0  0
  -33.0240   12.7270  -19.3440 C   0  0  0  0  0  3  0  0  0  0  0  0
  -34.7330   12.7700  -21.0980 C   0  0  0  0  0  0  0  0  0  0  0  0
  -34.1950   12.2810  -18.8910 N   0  0  0  0  0  0  0  0  0  0  0  0
  -33.0450   13.2260  -21.0240 S   0  0  0  0  0  0  0  0  0  0  0  0
  -36.5470   11.7980  -19.5210 C   0  0  0  0  0  1  0  0  0  0  0  0
  -37.5970   12.8940  -26.1850 C   0  0  0  0  0  2  0  0  0  0  0  0
  -36.2240   13.7150  -28.0820 C   0  0  0  0  0  0  0  0  0  0  0  0
  -36.4850   14.9080  -27.9150 O   0  0  0  0  0  0  0  0  0  0  0  0
  -36.7470   12.7260  -27.3520 N   0  0  0  0  0  0  0  0  0  0  0  0
  -36.4860   11.7780  -27.5860 H   0  0  0  0  0  0  0  0  0  0  0  0
  -36.1780   14.4610  -31.1020 C   0  0  0  0  0  0  0  0  0  0  0  0
  -35.1910   13.2770  -29.1280 C   0  0  0  0  0  3  0  0  0  0  0  0
  -33.7170   14.4890  -30.6060 C   0  0  0  0  0  2  0  0  0  0  0  0
  -35.1150   14.1470  -30.3160 N   0  0  0  0  0  0  0  0  0  0  0  0
  -37.3060   14.0010  -30.8840 O   0  0  0  0  0  0  0  0  0  0  0  0
  -33.7910   13.3150  -28.4970 C   0  0  0  0  0  2  0  0  0  0  0  0
  -32.8670   13.6610  -29.6440 C   0  0  0  0  0  3  0  0  0  0  0  0
  -32.4500   12.4810  -30.3160 O   0  0  0  0  0  0  0  0  0  0  0  0
  -33.2230   12.0250  -30.6310 H   0  0  0  0  0  0  0  0  0  0  0  0
  -35.9910   15.3790  -32.3380 C   0  0  0  0  0  3  0  0  0  0  0  0
  -36.7450   14.7740  -33.4490 N   0  0  0  0  0  0  0  0  0  0  0  0
  -36.2320   14.2260  -34.5600 C   0  0  0  0  0  0  0  0  0  0  0  0
  -35.0230   14.2440  -34.8020 O   0  0  0  0  0  0  0  0  0  0  0  0
  -37.7400   14.6580  -33.3100 H   0  0  0  0  0  0  0  0  0  0  0  0
  -37.2280   13.5850  -35.4910 C   0  0  1  0  0  0  0  0  0  0  0  0
  -38.4990   13.4590  -34.9540 F   0  0  0  0  0  0  0  0  0  0  0  0
  -37.1360   13.8540  -36.9750 C   0  0  0  0  0  2  0  0  0  0  0  0
  -36.7790   12.4880  -36.4320 C   0  0  0  0  0  2  0  0  0  0  0  0
  -35.7960   17.4780  -30.8410 C   0  0  0  0  0  1  0  0  0  0  0  0
  -36.0040   17.7240  -33.3040 C   0  0  0  0  0  1  0  0  0  0  0  0
  -37.9820   17.0000  -31.9510 C   0  0  0  0  0  1  0  0  0  0  0  0
  -36.4510   16.8640  -32.1020 C   0  0  1  0  0  0  0  0  0  0  0  0
  -38.6710   14.0930  -23.6910 O   0  0  0  0  0  0  0  0  0  0  0  0
  -37.7830   16.2720  -24.3020 C   0  0  0  0  0  3  0  0  0  0  0  0
  -39.7690   15.3350  -25.3960 C   0  0  0  0  0  3  0  0  0  0  0  0
  -37.7620   17.2780  -25.2790 C   0  0  0  0  0  0  0  0  0  0  0  0
  -38.6700   17.2790  -26.3350 C   0  0  0  0  0  0  0  0  0  0  0  0
  -39.6860   16.3000  -26.4180 C   0  0  0  0  0  0  0  0  0  0  0  0
  -38.7650   15.2570  -24.4080 C   0  0  0  0  0  0  0  0  0  0  0  0
  -36.7660   18.4000  -25.3900 C   0  0  0  0  0  2  0  0  0  0  0  0
  -37.0230   18.9790  -26.8000 C   0  0  0  0  0  2  0  0  0  0  0  0
  -38.3850   18.4170  -27.2910 C   0  0  0  0  0  3  0  0  0  0  0  0
  -40.6410   16.1900  -27.5900 C   0  0  0  0  0  1  0  0  0  0  0  0
  -40.4960   19.3940  -28.1080 N   0  0  0  0  0  0  0  0  0  0  0  0
  -40.1730   19.5820  -29.5330 C   0  0  0  0  0  2  0  0  0  0  0  0
  -41.4160   19.6100  -30.4490 C   0  0  0  0  0  2  0  0  0  0  0  0
  -42.4060   18.6510  -29.9740 N   0  0  0  0  0  0  0  0  0  0  0  0
  -42.8990   18.8340  -28.6140 C   0  0  0  0  0  2  0  0  0  0  0  0
  -41.8950   19.5990  -27.7190 C   0  0  0  0  0  2  0  0  0  0  0  0
  -39.5400   19.4220  -27.1630 C   0  0  0  0  0  0  0  0  0  0  0  0
  -39.6580   20.0840  -26.1250 O   0  0  0  0  0  0  0  0  0  0  0  0
  -43.2470   18.0410  -30.9290 C   0  0  0  0  0  0  0  0  0  0  0  0
  -44.5670   18.4750  -31.1760 C   0  0  0  0  0  3  0  0  0  0  0  0
  -45.3540   17.7870  -32.1380 C   0  0  0  0  0  0  0  0  0  0  0  0
  -44.8200   16.7230  -32.8050 N   0  0  0  0  0  0  0  0  0  0  0  0
  -43.5770   16.2900  -32.5760 N   0  0  0  0  0  0  0  0  0  0  0  0
  -42.8050   16.9230  -31.6690 C   0  0  0  0  0  0  0  0  0  0  0  0
  -41.5480   16.3880  -31.4520 N   0  0  0  0  0  0  0  0  0  0  0  0
  -41.1430   16.7240  -30.5880 H   0  0  0  0  0  0  0  0  0  0  0  0
  -41.4610   15.3930  -31.5970 H   0  0  0  0  0  0  0  0  0  0  0  0
  -46.7740   18.1520  -32.4720 C   0  0  0  0  0  0  0  0  0  0  0  0
  -47.6270   17.3910  -33.3380 C   0  0  0  0  0  0  0  0  0  0  0  0
  -48.9560   17.7840  -33.5890 C   0  0  0  0  0  3  0  0  0  0  0  0
  -49.4850   18.9400  -32.9970 C   0  0  0  0  0  3  0  0  0  0  0  0
  -48.6750   19.7110  -32.1530 C   0  0  0  0  0  3  0  0  0  0  0  0
  -47.3470   19.3210  -31.9010 C   0  0  0  0  0  3  0  0  0  0  0  0
  -47.2220   16.2480  -33.9690 O   0  0  0  0  0  0  0  0  0  0  0  0
  -46.3060   16.0590  -33.7640 H   0  0  0  0  0  0  0  0  0  0  0  0
  1  2  1  0
  2  3  2  0
  3  9  1  0
  4  6  2  0
  5  4  1  0
  5  1  2  0
  6  3  1  0
  7 12  1  0
  7 10  1  0
  8 10  2  0
  9 11  1  0
  9  7  2  0
 11  8  1  0
 13  5  1  0
 14 15  2  0
 14 16  1  0
 16 13  1  0
 17 16  1  0
 18 22  2  0
 18 21  1  0
 19 23  1  0
 19 14  1  0
 20 21  1  0
 20 24  1  0
 21 19  1  0
 24 25  1  0
 24 23  1  0
 26 25  1  0
 27 39  1  0
 27 18  1  0
 28 31  1  0
 28 27  1  0
 29 28  1  0
 30 29  2  0
 32 33  1  1
 32 29  1  0
 34 35  1  0
 34 32  1  0
 35 32  1  0
 39 37  1  6
 39 38  1  0
 39 36  1  0
 40  1  1  0
 42 46  2  0
 43 41  2  0
 44 43  1  0
 45 44  2  0
 45 42  1  0
 46 41  1  0
 46 40  1  0
 47 43  1  0
 48 47  1  0
 49 57  1  0
 49 48  1  0
 49 44  1  0
 50 45  1  0
 51 56  1  0
 51 57  1  0
 52 51  1  0
 53 54  1  0
 53 52  1  0
 54 55  1  0
 55 56  1  0
 57 58  2  0
 59 54  1  0
 60 59  1  0
 61 60  2  0
 62 63  2  0
 62 61  1  0
 63 64  1  0
 64 65  1  0
 64 59  2  0
 65 66  1  0
 67 65  1  0
 68 61  1  0
 68 73  1  0
 69 68  2  0
 70 69  1  0
 70 71  2  0
 71 72  1  0
 72 73  2  0
 74 75  1  0
 74 69  1  0
M  ISO  4  40 101  46 101  51 100  57 100
M  END
>  <TORSDO>  (36) 
F 15

>  <SCORE>  (36) 
-15.058

>  <name>  (36) 
35

>  <ligand_id>  (36) 
35

>  <original_smiles>  (36) 
[H]Oc1c([H])c([H])c([H])c([H])c1-c1nnc(N([H])[H])c(N2C([H])([H])C([H])([H])N(C(=O)C3([H])c4c(C([H])([H])[H])c([H])c(Oc5c([H])c(-c6sc([H])nc6C([H])([H])[H])c([H])c([H])c5C([H])([H])N([H])C(=O)C5([H])N(C(=O)C([H])(N([H])C(=O)C6(F)C([H])([H])C6([H])[H])C(C([H])([H])[H])(C([H])([H])[H])C([H])([H])[H])C([H])([H])C([H])(O[H])C5([H])[H])c([H])c4C([H])([H])C3([H])[H])C([H])([H])C2([H])[H])c1[H]

>  <smiles>  (36) 
[H]Oc1c([H])c([H])c([H])c([H])c1-c1nnc(N([H])[H])c(N2C([H])([H])C([H])([H])N(C(=O)C3([H])c4c(C([H])([H])[H])c([H])c(Oc5c([H])c(-c6sc([H])nc6C([H])([H])[H])c([H])c([H])c5C([H])([H])N([H])C(=O)C5([H])N(C(=O)C([H])(N([H])C(=O)C6(F)C([H])([H])C6([H])[H])C(C([H])([H])[H])(C([H])([H])[H])C([H])([H])[H])C([H])([H])C([H])(O[H])C5([H])[H])c([H])c4C([H])([H])C3([H])[H])C([H])([H])C2([H])[H])c1[H]

$$$$
36:0:0
     RDKit          3D

 75 82  0  0  1  0  0  0  0  0999 V2000
  -37.4140   13.5490  -23.7370 C   0  0  0  0  0  0  0  0  0  0  0  0
  -36.7250   13.4850  -22.4980 C   0  0  0  0  0  3  0  0  0  0  0  0
  -35.4480   12.8760  -22.3980 C   0  0  0  0  0  0  0  0  0  0  0  0
  -35.5400   12.3980  -24.7960 C   0  0  0  0  0  3  0  0  0  0  0  0
  -36.8260   12.9760  -24.8850 C   0  0  0  0  0  0  0  0  0  0  0  0
  -34.8590   12.3560  -23.5690 C   0  0  0  0  0  3  0  0  0  0  0  0
  -35.2020   12.2570  -19.9030 C   0  0  0  0  0  0  0  0  0  0  0  0
  -33.0420   12.6680  -19.3570 C   0  0  0  0  0  3  0  0  0  0  0  0
  -34.7490   12.7360  -21.1170 C   0  0  0  0  0  0  0  0  0  0  0  0
  -34.2190   12.2270  -18.9100 N   0  0  0  0  0  0  0  0  0  0  0  0
  -33.0550   13.1730  -21.0350 S   0  0  0  0  0  0  0  0  0  0  0  0
  -36.5700   11.7580  -19.5540 C   0  0  0  0  0  1  0  0  0  0  0  0
  -37.6030   12.9670  -26.2000 C   0  0  0  0  0  2  0  0  0  0  0  0
  -36.2220   13.7170  -28.1090 C   0  0  0  0  0  0  0  0  0  0  0  0
  -36.4730   14.9120  -27.9460 O   0  0  0  0  0  0  0  0  0  0  0  0
  -36.7680   12.7470  -27.3710 N   0  0  0  0  0  0  0  0  0  0  0  0
  -36.5250   11.7890  -27.5860 H   0  0  0  0  0  0  0  0  0  0  0  0
  -36.1640   14.4450  -31.1300 C   0  0  0  0  0  0  0  0  0  0  0  0
  -35.1850   13.2670  -29.1500 C   0  0  0  0  0  3  0  0  0  0  0  0
  -33.7060   14.4830  -30.6230 C   0  0  0  0  0  2  0  0  0  0  0  0
  -35.1030   14.1350  -30.3390 N   0  0  0  0  0  0  0  0  0  0  0  0
  -37.2880   13.9760  -30.9180 O   0  0  0  0  0  0  0  0  0  0  0  0
  -33.7840   13.3010  -28.5170 C   0  0  0  0  0  2  0  0  0  0  0  0
  -32.8560   13.6550  -29.6600 C   0  0  0  0  0  3  0  0  0  0  0  0
  -32.4280   12.4820  -30.3330 O   0  0  0  0  0  0  0  0  0  0  0  0
  -33.1970   12.0170  -30.6490 H   0  0  0  0  0  0  0  0  0  0  0  0
  -35.9770   15.3670  -32.3640 C   0  0  0  0  0  3  0  0  0  0  0  0
  -35.7880   17.4660  -30.8650 C   0  0  0  0  0  1  0  0  0  0  0  0
  -35.9960   17.7140  -33.3270 C   0  0  0  0  0  1  0  0  0  0  0  0
  -37.9710   16.9790  -31.9790 C   0  0  0  0  0  1  0  0  0  0  0  0
  -36.4410   16.8510  -32.1270 C   0  0  1  0  0  0  0  0  0  0  0  0
  -36.7280   14.7620  -33.4770 N   0  0  0  0  0  0  0  0  0  0  0  0
  -36.2140   14.2170  -34.5860 C   0  0  0  0  0  0  0  0  0  0  0  0
  -35.0040   14.2360  -34.8280 O   0  0  0  0  0  0  0  0  0  0  0  0
  -37.7230   14.6440  -33.3370 H   0  0  0  0  0  0  0  0  0  0  0  0
  -37.2070   13.5750  -35.5190 C   0  0  1  0  0  0  0  0  0  0  0  0
  -38.4800   13.4530  -34.9850 F   0  0  0  0  0  0  0  0  0  0  0  0
  -37.1110   13.8440  -37.0030 C   0  0  0  0  0  2  0  0  0  0  0  0
  -36.7570   12.4780  -36.4590 C   0  0  0  0  0  2  0  0  0  0  0  0
  -38.6870   14.0660  -23.8620 O   0  0  0  0  0  0  0  0  0  0  0  0
  -38.9310   15.4180  -23.4680 C   0  0  0  0  0  2  0  0  0  0  0  0
  -37.4530   17.2880  -24.2710 C   0  0  0  0  0  3  0  0  0  0  0  0
  -38.9700   17.7180  -26.6320 C   0  0  0  0  0  0  0  0  0  0  0  0
  -38.5660   16.4710  -24.5230 C   0  0  0  0  0  0  0  0  0  0  0  0
  -37.8170   18.5180  -26.3580 C   0  0  0  0  0  0  0  0  0  0  0  0
  -37.0840   18.3040  -25.1640 C   0  0  0  0  0  0  0  0  0  0  0  0
  -39.3350   16.6930  -25.7000 C   0  0  0  0  0  0  0  0  0  0  0  0
  -37.3320   19.5790  -27.3490 C   0  0  0  0  0  1  0  0  0  0  0  0
  -35.7070   19.2660  -24.7450 Cl  0  0  0  0  0  0  0  0  0  0  0  0
  -40.7380   15.7090  -25.9750 Cl  0  0  0  0  0  0  0  0  0  0  0  0
  -40.2370   19.0650  -28.2780 N   0  0  0  0  0  0  0  0  0  0  0  0
  -40.0150   19.6410  -29.6190 C   0  0  0  0  0  2  0  0  0  0  0  0
  -41.2520   19.5590  -30.5560 C   0  0  0  0  0  2  0  0  0  0  0  0
  -42.2780   18.6620  -30.0290 N   0  0  0  0  0  0  0  0  0  0  0  0
  -42.6910   18.8440  -28.6360 C   0  0  0  0  0  2  0  0  0  0  0  0
  -41.5560   19.4510  -27.7610 C   0  0  0  0  0  2  0  0  0  0  0  0
  -39.7020   17.8570  -27.9560 C   0  0  0  0  0  0  0  0  0  0  0  0
  -39.6480   16.9270  -28.7650 O   0  0  0  0  0  0  0  0  0  0  0  0
  -43.1530   18.0470  -30.9550 C   0  0  0  0  0  0  0  0  0  0  0  0
  -44.4650   18.5140  -31.1910 C   0  0  0  0  0  3  0  0  0  0  0  0
  -45.2850   17.8340  -32.1330 C   0  0  0  0  0  0  0  0  0  0  0  0
  -44.7930   16.7420  -32.7870 N   0  0  0  0  0  0  0  0  0  0  0  0
  -43.5610   16.2750  -32.5620 N   0  0  0  0  0  0  0  0  0  0  0  0
  -42.7560   16.9010  -31.6800 C   0  0  0  0  0  0  0  0  0  0  0  0
  -41.5110   16.3290  -31.4750 N   0  0  0  0  0  0  0  0  0  0  0  0
  -41.0580   16.6550  -30.6270 H   0  0  0  0  0  0  0  0  0  0  0  0
  -41.4470   15.3350  -31.6270 H   0  0  0  0  0  0  0  0  0  0  0  0
  -46.6960   18.2380  -32.4600 C   0  0  0  0  0  0  0  0  0  0  0  0
  -47.5690   17.5110  -33.3370 C   0  0  0  0  0  0  0  0  0  0  0  0
  -48.8900   17.9410  -33.5770 C   0  0  0  0  0  3  0  0  0  0  0  0
  -49.3910   19.0980  -32.9630 C   0  0  0  0  0  3  0  0  0  0  0  0
  -48.5590   19.8350  -32.1090 C   0  0  0  0  0  3  0  0  0  0  0  0
  -47.2400   19.4100  -31.8690 C   0  0  0  0  0  3  0  0  0  0  0  0
  -47.1930   16.3710  -33.9900 O   0  0  0  0  0  0  0  0  0  0  0  0
  -46.2800   16.1580  -33.7930 H   0  0  0  0  0  0  0  0  0  0  0  0
  1  2  1  0
  2  3  2  0
  3  9  1  0
  4  6  2  0
  5  4  1  0
  5  1  2  0
  6  3  1  0
  7 12  1  0
  7 10  1  0
  8 10  2  0
  9 11  1  0
  9  7  2  0
 11  8  1  0
 13  5  1  0
 14 15  2  0
 14 16  1  0
 16 13  1  0
 17 16  1  0
 18 22  2  0
 18 21  1  0
 19 23  1  0
 19 14  1  0
 20 21  1  0
 20 24  1  0
 21 19  1  0
 24 25  1  0
 24 23  1  0
 26 25  1  0
 27 31  1  0
 27 18  1  0
 31 29  1  6
 31 30  1  0
 31 28  1  0
 32 35  1  0
 32 27  1  0
 33 32  1  0
 34 33  2  0
 36 37  1  1
 36 33  1  0
 38 39  1  0
 38 36  1  0
 39 36  1  0
 40  1  1  0
 40 41  1  0
 43 45  2  0
 43 47  1  0
 44 42  1  0
 44 41  1  0
 45 46  1  0
 46 49  1  0
 46 42  2  0
 47 44  2  0
 48 45  1  0
 50 47  1  0
 51 57  1  0
 51 56  1  0
 52 51  1  0
 53 54  1  0
 53 52  1  0
 54 55  1  0
 55 56  1  0
 57 43  1  0
 58 57  2  0
 59 54  1  0
 60 59  1  0
 61 60  2  0
 62 63  2  0
 62 61  1  0
 63 64  1  0
 64 65  1  0
 64 59  2  0
 65 66  1  0
 67 65  1  0
 68 61  1  0
 68 73  1  0
 69 68  2  0
 70 69  1  0
 70 71  2  0
 71 72  1  0
 72 73  2  0
 74 75  1  0
 74 69  1  0
M  ISO  4  40 101  41 101  51 100  57 100
M  END
>  <TORSDO>  (37) 
F 16

>  <SCORE>  (37) 
-14.885

>  <name>  (37) 
36

>  <ligand_id>  (37) 
36

>  <original_smiles>  (37) 
[H]Oc1c([H])c([H])c([H])c([H])c1-c1nnc(N([H])[H])c(N2C([H])([H])C([H])([H])N(C(=O)c3c(Cl)c(C([H])([H])Oc4c([H])c(-c5sc([H])nc5C([H])([H])[H])c([H])c([H])c4C([H])([H])N([H])C(=O)C4([H])N(C(=O)C([H])(N([H])C(=O)C5(F)C([H])([H])C5([H])[H])C(C([H])([H])[H])(C([H])([H])[H])C([H])([H])[H])C([H])([H])C([H])(O[H])C4([H])[H])c([H])c(Cl)c3C([H])([H])[H])C([H])([H])C2([H])[H])c1[H]

>  <smiles>  (37) 
[H]Oc1c([H])c([H])c([H])c([H])c1-c1nnc(N([H])[H])c(N2C([H])([H])C([H])([H])N(C(=O)c3c(Cl)c(C([H])([H])Oc4c([H])c(-c5sc([H])nc5C([H])([H])[H])c([H])c([H])c4C([H])([H])N([H])C(=O)C4([H])N(C(=O)C([H])(N([H])C(=O)C5(F)C([H])([H])C5([H])[H])C(C([H])([H])[H])(C([H])([H])[H])C([H])([H])[H])C([H])([H])C([H])(O[H])C4([H])[H])c([H])c(Cl)c3C([H])([H])[H])C([H])([H])C2([H])[H])c1[H]

$$$$
37:0:0
     RDKit          3D

 79 87  0  0  1  0  0  0  0  0999 V2000
  -38.6710   13.9800  -23.8390 O   0  0  0  0  0  0  0  0  0  0  0  0
  -40.0130   17.4790  -25.5540 C   0  0  0  0  0  3  0  0  0  0  0  0
  -39.4160   18.5630  -26.2010 C   0  0  0  0  0  0  0  0  0  0  0  0
  -39.8740   17.4490  -24.1620 C   0  0  0  0  0  0  0  0  0  0  0  0
  -38.7190   19.4260  -24.2210 C   0  0  0  0  0  0  0  0  0  0  0  0
  -40.9110   14.1220  -23.0230 C   0  0  0  0  0  2  0  0  0  0  0  0
  -41.1990   15.3510  -23.8820 C   0  0  0  0  0  2  0  0  0  0  0  0
  -39.3340   15.8160  -22.4590 C   0  0  0  0  0  2  0  0  0  0  0  0
  -39.4370   14.3060  -22.6780 C   0  0  0  0  0  3  0  0  0  0  0  0
  -37.9810   20.5060  -23.4590 C   0  0  0  0  0  1  0  0  0  0  0  0
  -38.7540   19.5300  -25.5410 N   0  0  0  0  0  0  0  0  0  0  0  0
  -39.2400   18.4350  -23.5100 N   0  0  0  0  0  0  0  0  0  0  0  0
  -40.3400   16.4050  -23.3460 N   0  0  0  0  0  0  0  0  0  0  0  0
  -40.2820   19.1090  -28.4740 N   0  0  0  0  0  0  0  0  0  0  0  0
  -40.0150   19.4150  -29.8990 C   0  0  0  0  0  2  0  0  0  0  0  0
  -41.2790   19.4010  -30.7890 C   0  0  0  0  0  2  0  0  0  0  0  0
  -42.3340   18.5770  -30.2060 N   0  0  0  0  0  0  0  0  0  0  0  0
  -42.7630   18.9200  -28.8510 C   0  0  0  0  0  2  0  0  0  0  0  0
  -41.6190   19.4970  -27.9780 C   0  0  0  0  0  2  0  0  0  0  0  0
  -39.2920   18.6710  -27.6530 C   0  0  0  0  0  3  0  0  0  0  0  0
  -38.0890   18.3270  -28.1300 N   0  0  0  0  0  0  0  0  0  0  0  0
  -37.3910   18.0790  -27.4440 H   0  0  0  0  0  0  0  0  0  0  0  0
  -37.8390   18.3930  -29.0980 H   0  0  0  0  0  0  0  0  0  0  0  0
  -43.2650   18.0010  -31.1040 C   0  0  0  0  0  0  0  0  0  0  0  0
  -44.5670   18.5120  -31.3000 C   0  0  0  0  0  3  0  0  0  0  0  0
  -45.4420   17.8510  -32.2070 C   0  0  0  0  0  0  0  0  0  0  0  0
  -45.0060   16.7440  -32.8710 N   0  0  0  0  0  0  0  0  0  0  0  0
  -43.7820   16.2420  -32.6950 N   0  0  0  0  0  0  0  0  0  0  0  0
  -42.9290   16.8440  -31.8410 C   0  0  0  0  0  0  0  0  0  0  0  0
  -41.6940   16.2400  -31.6810 N   0  0  0  0  0  0  0  0  0  0  0  0
  -41.2270   16.5330  -30.8340 H   0  0  0  0  0  0  0  0  0  0  0  0
  -41.6580   15.2450  -31.8550 H   0  0  0  0  0  0  0  0  0  0  0  0
  -46.8540   18.2930  -32.4810 C   0  0  0  0  0  0  0  0  0  0  0  0
  -47.7730   17.5950  -33.3320 C   0  0  0  0  0  0  0  0  0  0  0  0
  -49.0890   18.0590  -33.5260 C   0  0  0  0  0  3  0  0  0  0  0  0
  -49.5390   19.2250  -32.8890 C   0  0  0  0  0  3  0  0  0  0  0  0
  -48.6620   19.9360  -32.0610 C   0  0  0  0  0  3  0  0  0  0  0  0
  -47.3470   19.4750  -31.8670 C   0  0  0  0  0  3  0  0  0  0  0  0
  -47.4460   16.4490  -34.0020 O   0  0  0  0  0  0  0  0  0  0  0  0
  -46.5330   16.2140  -33.8350 H   0  0  0  0  0  0  0  0  0  0  0  0
  -37.3920   13.4850  -23.7030 C   0  0  0  0  0  0  0  0  0  0  0  0
  -36.6810   13.4510  -22.4750 C   0  0  0  0  0  3  0  0  0  0  0  0
  -35.4040   12.8560  -22.3860 C   0  0  0  0  0  0  0  0  0  0  0  0
  -35.4920   12.3890  -24.7810 C   0  0  0  0  0  3  0  0  0  0  0  0
  -36.7850   12.9530  -24.8660 C   0  0  0  0  0  0  0  0  0  0  0  0
  -34.8120   12.3400  -23.5540 C   0  0  0  0  0  3  0  0  0  0  0  0
  -35.1840   12.2690  -19.8850 C   0  0  0  0  0  0  0  0  0  0  0  0
  -33.0280   12.6810  -19.3270 C   0  0  0  0  0  3  0  0  0  0  0  0
  -34.7140   12.7290  -21.1010 C   0  0  0  0  0  0  0  0  0  0  0  0
  -34.2080   12.2450  -18.8860 N   0  0  0  0  0  0  0  0  0  0  0  0
  -33.0230   13.1700  -21.0090 S   0  0  0  0  0  0  0  0  0  0  0  0
  -36.5580   11.7840  -19.5410 C   0  0  0  0  0  1  0  0  0  0  0  0
  -37.5580   12.9490  -26.1860 C   0  0  0  0  0  2  0  0  0  0  0  0
  -36.1830   13.7090  -28.1050 C   0  0  0  0  0  0  0  0  0  0  0  0
  -36.4520   14.9040  -27.9540 O   0  0  0  0  0  0  0  0  0  0  0  0
  -36.7160   12.7390  -27.3570 N   0  0  0  0  0  0  0  0  0  0  0  0
  -36.4470   11.7880  -27.5600 H   0  0  0  0  0  0  0  0  0  0  0  0
  -36.1190   14.4260  -31.1320 C   0  0  0  0  0  0  0  0  0  0  0  0
  -35.1410   13.2610  -29.1440 C   0  0  0  0  0  3  0  0  0  0  0  0
  -33.6620   14.4800  -30.6140 C   0  0  0  0  0  2  0  0  0  0  0  0
  -35.0600   14.1250  -30.3360 N   0  0  0  0  0  0  0  0  0  0  0  0
  -37.2430   13.9520  -30.9230 O   0  0  0  0  0  0  0  0  0  0  0  0
  -33.7420   13.3020  -28.5070 C   0  0  0  0  0  2  0  0  0  0  0  0
  -32.8100   13.6610  -29.6470 C   0  0  0  0  0  3  0  0  0  0  0  0
  -32.3690   12.4880  -30.3140 O   0  0  0  0  0  0  0  0  0  0  0  0
  -33.1330   12.0140  -30.6320 H   0  0  0  0  0  0  0  0  0  0  0  0
  -35.9340   15.3450  -32.3660 C   0  0  0  0  0  3  0  0  0  0  0  0
  -36.6830   14.7390  -33.4780 N   0  0  0  0  0  0  0  0  0  0  0  0
  -36.1670   14.2010  -34.5910 C   0  0  0  0  0  0  0  0  0  0  0  0
  -34.9560   14.2320  -34.8330 O   0  0  0  0  0  0  0  0  0  0  0  0
  -37.6760   14.6150  -33.3400 H   0  0  0  0  0  0  0  0  0  0  0  0
  -37.1560   13.5560  -35.5240 C   0  0  1  0  0  0  0  0  0  0  0  0
  -38.4210   13.3990  -34.9790 F   0  0  0  0  0  0  0  0  0  0  0  0
  -37.0790   13.8490  -37.0030 C   0  0  0  0  0  2  0  0  0  0  0  0
  -36.6930   12.4810  -36.4840 C   0  0  0  0  0  2  0  0  0  0  0  0
  -35.7440   17.4450  -30.8720 C   0  0  0  0  0  1  0  0  0  0  0  0
  -35.9650   17.6900  -33.3330 C   0  0  0  0  0  1  0  0  0  0  0  0
  -37.9340   16.9560  -31.9700 C   0  0  0  0  0  1  0  0  0  0  0  0
  -36.4020   16.8280  -32.1290 C   0  0  1  0  0  0  0  0  0  0  0  0
  1 41  1  0
  2  4  1  0
  3  2  2  0
  3 11  1  0
  4 12  2  0
  4 13  1  0
  5 12  1  0
  5 10  1  0
  6  9  1  0
  7 13  1  0
  7  6  1  0
  9  1  1  0
  9  8  1  0
 11  5  2  0
 13  8  1  0
 14 19  1  0
 14 20  1  0
 15 14  1  0
 16 17  1  0
 16 15  1  0
 17 18  1  0
 18 19  1  0
 20 21  1  0
 20  3  1  0
 21 22  1  0
 23 21  1  0
 24 17  1  0
 25 24  1  0
 26 25  2  0
 27 28  2  0
 27 26  1  0
 28 29  1  0
 29 30  1  0
 29 24  2  0
 30 31  1  0
 32 30  1  0
 33 26  1  0
 33 38  1  0
 34 33  2  0
 35 34  1  0
 35 36  2  0
 36 37  1  0
 37 38  2  0
 39 40  1  0
 39 34  1  0
 41 42  1  0
 42 43  2  0
 43 49  1  0
 44 46  2  0
 45 44  1  0
 45 41  2  0
 46 43  1  0
 47 52  1  0
 47 50  1  0
 48 50  2  0
 49 51  1  0
 49 47  2  0
 51 48  1  0
 53 45  1  0
 54 55  2  0
 54 56  1  0
 56 53  1  0
 57 56  1  0
 58 62  2  0
 58 61  1  0
 59 63  1  0
 59 54  1  0
 60 61  1  0
 60 64  1  0
 61 59  1  0
 64 65  1  0
 64 63  1  0
 66 65  1  0
 67 79  1  0
 67 58  1  0
 68 71  1  0
 68 67  1  0
 69 68  1  0
 70 69  2  0
 72 73  1  1
 72 69  1  0
 74 75  1  0
 74 72  1  0
 75 72  1  0
 79 77  1  6
 79 78  1  0
 79 76  1  0
M  ISO  4   1 101   9 101  14 100  20 100
M  END
>  <TORSDO>  (38) 
F 15

>  <SCORE>  (38) 
-15.094

>  <name>  (38) 
37

>  <ligand_id>  (38) 
37

>  <original_smiles>  (38) 
[H]Oc1c([H])c([H])c([H])c([H])c1-c1nnc(N([H])[H])c(N2C([H])([H])C([H])([H])N(C(c3nc(C([H])([H])[H])nc(N4C([H])([H])C([H])([H])C([H])(Oc5c([H])c(-c6sc([H])nc6C([H])([H])[H])c([H])c([H])c5C([H])([H])N([H])C(=O)C5([H])N(C(=O)C([H])(N([H])C(=O)C6(F)C([H])([H])C6([H])[H])C(C([H])([H])[H])(C([H])([H])[H])C([H])([H])[H])C([H])([H])C([H])(O[H])C5([H])[H])C4([H])[H])c3[H])=[N+]([H])[H])C([H])([H])C2([H])[H])c1[H]

>  <smiles>  (38) 
[H]Oc1c([H])c([H])c([H])c([H])c1-c1nnc(N([H])[H])c(N2C([H])([H])C([H])([H])N(C(c3nc(C([H])([H])[H])nc(N4C([H])([H])C([H])([H])C([H])(Oc5c([H])c(-c6sc([H])nc6C([H])([H])[H])c([H])c([H])c5C([H])([H])N([H])C(=O)C5([H])N(C(=O)C([H])(N([H])C(=O)C6(F)C([H])([H])C6([H])[H])C(C([H])([H])[H])(C([H])([H])[H])C([H])([H])[H])C([H])([H])C([H])(O[H])C5([H])[H])C4([H])[H])c3[H])=[N+]([H])[H])C([H])([H])C2([H])[H])c1[H]

$$$$
38:0:0
     RDKit          3D

 76 84  0  0  1  0  0  0  0  0999 V2000
  -37.3580   13.4930  -23.7090 C   0  0  0  0  0  0  0  0  0  0  0  0
  -36.6610   13.4460  -22.4810 C   0  0  0  0  0  3  0  0  0  0  0  0
  -35.3770   12.8640  -22.3870 C   0  0  0  0  0  0  0  0  0  0  0  0
  -35.4780   12.3800  -24.7840 C   0  0  0  0  0  3  0  0  0  0  0  0
  -36.7730   12.9410  -24.8720 C   0  0  0  0  0  0  0  0  0  0  0  0
  -34.7890   12.3470  -23.5590 C   0  0  0  0  0  3  0  0  0  0  0  0
  -35.1410   12.2830  -19.8810 C   0  0  0  0  0  0  0  0  0  0  0  0
  -32.9830   12.7110  -19.3360 C   0  0  0  0  0  3  0  0  0  0  0  0
  -34.6820   12.7420  -21.1020 C   0  0  0  0  0  0  0  0  0  0  0  0
  -34.1600   12.2730  -18.8870 N   0  0  0  0  0  0  0  0  0  0  0  0
  -32.9930   13.1920  -21.0210 S   0  0  0  0  0  0  0  0  0  0  0  0
  -36.5110   11.7940  -19.5290 C   0  0  0  0  0  1  0  0  0  0  0  0
  -37.5600   12.8710  -26.1800 C   0  0  0  0  0  2  0  0  0  0  0  0
  -36.2020   13.6690  -28.0990 C   0  0  0  0  0  0  0  0  0  0  0  0
  -36.4810   14.8600  -27.9400 O   0  0  0  0  0  0  0  0  0  0  0  0
  -36.7220   12.6880  -27.3590 N   0  0  0  0  0  0  0  0  0  0  0  0
  -36.4550   11.7380  -27.5790 H   0  0  0  0  0  0  0  0  0  0  0  0
  -36.1410   14.4130  -31.1160 C   0  0  0  0  0  0  0  0  0  0  0  0
  -35.1540   13.2380  -29.1390 C   0  0  0  0  0  3  0  0  0  0  0  0
  -33.6820   14.4720  -30.6050 C   0  0  0  0  0  2  0  0  0  0  0  0
  -35.0780   14.1100  -30.3260 N   0  0  0  0  0  0  0  0  0  0  0  0
  -37.2640   13.9380  -30.9060 O   0  0  0  0  0  0  0  0  0  0  0  0
  -33.7570   13.2880  -28.5010 C   0  0  0  0  0  2  0  0  0  0  0  0
  -32.8270   13.6520  -29.6420 C   0  0  0  0  0  3  0  0  0  0  0  0
  -32.3910   12.4810  -30.3150 O   0  0  0  0  0  0  0  0  0  0  0  0
  -33.1560   12.0200  -30.6440 H   0  0  0  0  0  0  0  0  0  0  0  0
  -35.9580   15.3390  -32.3490 C   0  0  0  0  0  3  0  0  0  0  0  0
  -36.7040   14.7320  -33.4630 N   0  0  0  0  0  0  0  0  0  0  0  0
  -36.1840   14.2100  -34.5830 C   0  0  0  0  0  0  0  0  0  0  0  0
  -34.9760   14.2580  -34.8290 O   0  0  0  0  0  0  0  0  0  0  0  0
  -37.6970   14.5940  -33.3230 H   0  0  0  0  0  0  0  0  0  0  0  0
  -37.1690   13.5600  -35.5190 C   0  0  1  0  0  0  0  0  0  0  0  0
  -38.4340   13.3980  -34.9780 F   0  0  0  0  0  0  0  0  0  0  0  0
  -37.0870   13.8500  -37.0010 C   0  0  0  0  0  2  0  0  0  0  0  0
  -36.6990   12.4860  -36.4770 C   0  0  0  0  0  2  0  0  0  0  0  0
  -35.7740   17.4430  -30.8560 C   0  0  0  0  0  1  0  0  0  0  0  0
  -36.0160   17.6840  -33.3140 C   0  0  0  0  0  1  0  0  0  0  0  0
  -37.9660   16.9360  -31.9420 C   0  0  0  0  0  1  0  0  0  0  0  0
  -36.4360   16.8180  -32.1080 C   0  0  1  0  0  0  0  0  0  0  0  0
  -38.6660   13.8990  -23.7120 O   0  0  0  0  0  0  0  0  0  0  0  0
  -39.7290   18.0780  -25.6600 C   0  0  0  0  0  3  0  0  0  0  0  0
  -39.1420   19.1500  -26.2640 C   0  0  0  0  0  0  0  0  0  0  0  0
  -39.3320   18.2410  -24.3040 C   0  0  0  0  0  0  0  0  0  0  0  0
  -40.5130   15.3040  -24.1690 C   0  0  0  0  0  2  0  0  0  0  0  0
  -40.8580   16.5990  -23.4210 C   0  0  0  0  0  2  0  0  0  0  0  0
  -38.5700   16.3190  -23.1560 C   0  0  0  0  0  2  0  0  0  0  0  0
  -38.9790   15.2110  -24.1340 C   0  0  0  0  0  3  0  0  0  0  0  0
  -37.6190   21.0610  -25.4460 C   0  0  0  0  0  1  0  0  0  0  0  0
  -38.5810   19.3070  -24.0860 N   0  0  0  0  0  0  0  0  0  0  0  0
  -38.4460   19.8750  -25.3090 N   0  0  0  0  0  0  0  0  0  0  0  0
  -39.6090   17.3380  -23.2730 N   0  0  0  0  0  0  0  0  0  0  0  0
  -40.1900   19.2820  -28.4990 N   0  0  0  0  0  0  0  0  0  0  0  0
  -39.9970   19.3890  -29.9560 C   0  0  0  0  0  2  0  0  0  0  0  0
  -41.2890   19.4690  -30.7880 C   0  0  0  0  0  2  0  0  0  0  0  0
  -42.3060   18.5980  -30.2240 N   0  0  0  0  0  0  0  0  0  0  0  0
  -42.6740   18.8140  -28.8300 C   0  0  0  0  0  2  0  0  0  0  0  0
  -41.5650   19.5290  -28.0140 C   0  0  0  0  0  2  0  0  0  0  0  0
  -39.0680   19.3470  -27.7320 C   0  0  0  0  0  0  0  0  0  0  0  0
  -37.9530   19.5490  -28.2270 O   0  0  0  0  0  0  0  0  0  0  0  0
  -43.2400   18.0250  -31.1150 C   0  0  0  0  0  0  0  0  0  0  0  0
  -44.5410   18.5400  -31.3030 C   0  0  0  0  0  3  0  0  0  0  0  0
  -45.4190   17.8880  -32.2110 C   0  0  0  0  0  0  0  0  0  0  0  0
  -44.9890   16.7830  -32.8830 N   0  0  0  0  0  0  0  0  0  0  0  0
  -43.7660   16.2750  -32.7110 N   0  0  0  0  0  0  0  0  0  0  0  0
  -42.9100   16.8710  -31.8590 C   0  0  0  0  0  0  0  0  0  0  0  0
  -41.6760   16.2640  -31.7040 N   0  0  0  0  0  0  0  0  0  0  0  0
  -41.1970   16.5740  -30.8690 H   0  0  0  0  0  0  0  0  0  0  0  0
  -41.6500   15.2670  -31.8600 H   0  0  0  0  0  0  0  0  0  0  0  0
  -46.8310   18.3330  -32.4820 C   0  0  0  0  0  0  0  0  0  0  0  0
  -47.7470   17.6510  -33.3490 C   0  0  0  0  0  0  0  0  0  0  0  0
  -49.0640   18.1180  -33.5350 C   0  0  0  0  0  3  0  0  0  0  0  0
  -49.5160   19.2710  -32.8760 C   0  0  0  0  0  3  0  0  0  0  0  0
  -48.6410   19.9640  -32.0280 C   0  0  0  0  0  3  0  0  0  0  0  0
  -47.3270   19.4990  -31.8410 C   0  0  0  0  0  3  0  0  0  0  0  0
  -47.4210   16.5210  -34.0440 O   0  0  0  0  0  0  0  0  0  0  0  0
  -46.5070   16.2800  -33.8810 H   0  0  0  0  0  0  0  0  0  0  0  0
  1  2  1  0
  2  3  2  0
  3  9  1  0
  4  6  2  0
  5  4  1  0
  5  1  2  0
  6  3  1  0
  7 12  1  0
  7 10  1  0
  8 10  2  0
  9 11  1  0
  9  7  2  0
 11  8  1  0
 13  5  1  0
 14 15  2  0
 14 16  1  0
 16 13  1  0
 17 16  1  0
 18 22  2  0
 18 21  1  0
 19 23  1  0
 19 14  1  0
 20 21  1  0
 20 24  1  0
 21 19  1  0
 24 25  1  0
 24 23  1  0
 26 25  1  0
 27 39  1  0
 27 18  1  0
 28 31  1  0
 28 27  1  0
 29 28  1  0
 30 29  2  0
 32 33  1  1
 32 29  1  0
 34 35  1  0
 34 32  1  0
 35 32  1  0
 39 37  1  6
 39 38  1  0
 39 36  1  0
 40  1  1  0
 41 43  1  0
 42 41  2  0
 42 50  1  0
 43 49  2  0
 43 51  1  0
 44 47  1  0
 44 45  1  0
 45 51  1  0
 47 40  1  0
 47 46  1  0
 48 50  1  0
 50 49  1  0
 51 46  1  0
 52 57  1  0
 52 58  1  0
 53 52  1  0
 54 55  1  0
 54 53  1  0
 55 56  1  0
 56 57  1  0
 58 42  1  0
 59 58  2  0
 60 55  1  0
 61 60  1  0
 62 61  2  0
 63 64  2  0
 63 62  1  0
 64 65  1  0
 65 66  1  0
 65 60  2  0
 66 67  1  0
 68 66  1  0
 69 62  1  0
 69 74  1  0
 70 69  2  0
 71 70  1  0
 71 72  2  0
 72 73  1  0
 73 74  2  0
 75 76  1  0
 75 70  1  0
M  ISO  4  40 101  47 101  52 100  58 100
M  END
>  <TORSDO>  (39) 
F 15

>  <SCORE>  (39) 
-15.034

>  <name>  (39) 
38

>  <ligand_id>  (39) 
38

>  <original_smiles>  (39) 
[H]Oc1c([H])c([H])c([H])c([H])c1-c1nnc(N([H])[H])c(N2C([H])([H])C([H])([H])N(C(=O)c3c([H])c(N4C([H])([H])C([H])([H])C([H])(Oc5c([H])c(-c6sc([H])nc6C([H])([H])[H])c([H])c([H])c5C([H])([H])N([H])C(=O)C5([H])N(C(=O)C([H])(N([H])C(=O)C6(F)C([H])([H])C6([H])[H])C(C([H])([H])[H])(C([H])([H])[H])C([H])([H])[H])C([H])([H])C([H])(O[H])C5([H])[H])C4([H])[H])nn3C([H])([H])[H])C([H])([H])C2([H])[H])c1[H]

>  <smiles>  (39) 
[H]Oc1c([H])c([H])c([H])c([H])c1-c1nnc(N([H])[H])c(N2C([H])([H])C([H])([H])N(C(=O)c3c([H])c(N4C([H])([H])C([H])([H])C([H])(Oc5c([H])c(-c6sc([H])nc6C([H])([H])[H])c([H])c([H])c5C([H])([H])N([H])C(=O)C5([H])N(C(=O)C([H])(N([H])C(=O)C6(F)C([H])([H])C6([H])[H])C(C([H])([H])[H])(C([H])([H])[H])C([H])([H])[H])C([H])([H])C([H])(O[H])C5([H])[H])C4([H])[H])nn3C([H])([H])[H])C([H])([H])C2([H])[H])c1[H]

$$$$
39:0:0
     RDKit          3D

 72 79  0  0  1  0  0  0  0  0999 V2000
  -37.4110   13.5860  -23.7680 C   0  0  0  0  0  0  0  0  0  0  0  0
  -36.7570   13.4650  -22.5110 C   0  0  0  0  0  3  0  0  0  0  0  0
  -35.4930   12.8360  -22.3890 C   0  0  0  0  0  0  0  0  0  0  0  0
  -35.5720   12.3400  -24.7820 C   0  0  0  0  0  3  0  0  0  0  0  0
  -36.8390   12.9590  -24.8950 C   0  0  0  0  0  0  0  0  0  0  0  0
  -34.9000   12.3010  -23.5500 C   0  0  0  0  0  3  0  0  0  0  0  0
  -35.2700   12.2620  -19.8770 C   0  0  0  0  0  0  0  0  0  0  0  0
  -33.1050   12.6370  -19.3270 C   0  0  0  0  0  3  0  0  0  0  0  0
  -34.8030   12.7060  -21.1000 C   0  0  0  0  0  0  0  0  0  0  0  0
  -34.2930   12.2290  -18.8800 N   0  0  0  0  0  0  0  0  0  0  0  0
  -33.1000   13.1120  -21.0140 S   0  0  0  0  0  0  0  0  0  0  0  0
  -36.6500   11.8000  -19.5250 C   0  0  0  0  0  1  0  0  0  0  0  0
  -37.6120   12.9280  -26.2080 C   0  0  0  0  0  2  0  0  0  0  0  0
  -36.2160   13.7070  -28.0920 C   0  0  0  0  0  0  0  0  0  0  0  0
  -36.4740   14.8990  -27.9200 O   0  0  0  0  0  0  0  0  0  0  0  0
  -36.7670   12.7260  -27.3740 N   0  0  0  0  0  0  0  0  0  0  0  0
  -36.5120   11.7720  -27.5930 H   0  0  0  0  0  0  0  0  0  0  0  0
  -36.1560   14.4410  -31.1070 C   0  0  0  0  0  0  0  0  0  0  0  0
  -35.1690   13.2680  -29.1280 C   0  0  0  0  0  3  0  0  0  0  0  0
  -33.7000   14.5010  -30.5920 C   0  0  0  0  0  2  0  0  0  0  0  0
  -35.0950   14.1380  -30.3150 N   0  0  0  0  0  0  0  0  0  0  0  0
  -37.2780   13.9660  -30.8980 O   0  0  0  0  0  0  0  0  0  0  0  0
  -33.7720   13.3180  -28.4890 C   0  0  0  0  0  2  0  0  0  0  0  0
  -32.8440   13.6830  -29.6280 C   0  0  0  0  0  3  0  0  0  0  0  0
  -32.4000   12.5150  -30.2990 O   0  0  0  0  0  0  0  0  0  0  0  0
  -33.1610   12.0390  -30.6170 H   0  0  0  0  0  0  0  0  0  0  0  0
  -35.9730   15.3700  -32.3370 C   0  0  0  0  0  3  0  0  0  0  0  0
  -36.7280   14.7690  -33.4500 N   0  0  0  0  0  0  0  0  0  0  0  0
  -36.2170   14.2250  -34.5630 C   0  0  0  0  0  0  0  0  0  0  0  0
  -35.0070   14.2430  -34.8050 O   0  0  0  0  0  0  0  0  0  0  0  0
  -37.7230   14.6550  -33.3080 H   0  0  0  0  0  0  0  0  0  0  0  0
  -37.2130   13.5880  -35.4960 C   0  0  1  0  0  0  0  0  0  0  0  0
  -38.4830   13.4550  -34.9560 F   0  0  0  0  0  0  0  0  0  0  0  0
  -37.1250   13.8650  -36.9780 C   0  0  0  0  0  2  0  0  0  0  0  0
  -36.7630   12.4970  -36.4440 C   0  0  0  0  0  2  0  0  0  0  0  0
  -35.7530   17.4700  -30.8480 C   0  0  0  0  0  1  0  0  0  0  0  0
  -36.0220   17.7120  -33.3050 C   0  0  0  0  0  1  0  0  0  0  0  0
  -37.9650   16.9790  -31.9030 C   0  0  0  0  0  1  0  0  0  0  0  0
  -36.4370   16.8510  -32.0930 C   0  0  1  0  0  0  0  0  0  0  0  0
  -38.6220   14.2500  -23.9140 O   0  0  0  0  0  0  0  0  0  0  0  0
  -37.4900   16.3920  -23.2100 C   0  0  0  0  0  1  0  0  0  0  0  0
  -39.9300   16.0040  -23.1420 C   0  0  0  0  0  1  0  0  0  0  0  0
  -38.6620   15.7100  -23.9670 C   0  0  2  0  0  0  0  0  0  0  0  0
  -40.1990   19.0790  -28.2890 N   0  0  0  0  0  0  0  0  0  0  0  0
  -39.8370   19.3100  -29.6970 C   0  0  0  0  0  2  0  0  0  0  0  0
  -41.0740   19.3980  -30.6490 C   0  0  0  0  0  2  0  0  0  0  0  0
  -42.2060   18.6250  -30.1320 N   0  0  0  0  0  0  0  0  0  0  0  0
  -42.6450   18.8940  -28.7630 C   0  0  0  0  0  2  0  0  0  0  0  0
  -41.5310   19.5370  -27.9010 C   0  0  0  0  0  2  0  0  0  0  0  0
  -40.0130   16.0040  -26.1650 C   0  0  0  0  0  3  0  0  0  0  0  0
  -40.4110   16.8460  -27.2320 C   0  0  0  0  0  3  0  0  0  0  0  0
  -38.1280   17.4450  -25.8630 C   0  0  0  0  0  3  0  0  0  0  0  0
  -38.8850   16.3430  -25.3820 C   0  0  0  0  0  0  0  0  0  0  0  0
  -39.6700   18.0110  -27.5210 C   0  0  0  0  0  0  0  0  0  0  0  0
  -38.5090   18.2580  -26.8840 N   0  0  0  0  0  0  0  0  0  0  0  0
  -43.1110   18.0300  -31.0410 C   0  0  0  0  0  0  0  0  0  0  0  0
  -44.4160   18.5270  -31.2510 C   0  0  0  0  0  3  0  0  0  0  0  0
  -45.2800   17.8480  -32.1520 C   0  0  0  0  0  0  0  0  0  0  0  0
  -44.8320   16.7340  -32.7980 N   0  0  0  0  0  0  0  0  0  0  0  0
  -43.6060   16.2420  -32.6040 N   0  0  0  0  0  0  0  0  0  0  0  0
  -42.7610   16.8630  -31.7560 C   0  0  0  0  0  0  0  0  0  0  0  0
  -41.5280   16.2620  -31.5700 N   0  0  0  0  0  0  0  0  0  0  0  0
  -41.0650   16.5890  -30.7340 H   0  0  0  0  0  0  0  0  0  0  0  0
  -41.5000   15.2610  -31.6980 H   0  0  0  0  0  0  0  0  0  0  0  0
  -46.6930   18.2780  -32.4420 C   0  0  0  0  0  0  0  0  0  0  0  0
  -47.6050   17.5590  -33.2830 C   0  0  0  0  0  0  0  0  0  0  0  0
  -48.9230   18.0120  -33.4930 C   0  0  0  0  0  3  0  0  0  0  0  0
  -49.3810   19.1880  -32.8820 C   0  0  0  0  0  3  0  0  0  0  0  0
  -48.5120   19.9190  -32.0610 C   0  0  0  0  0  3  0  0  0  0  0  0
  -47.1950   19.4690  -31.8520 C   0  0  0  0  0  3  0  0  0  0  0  0
  -47.2700   16.4010  -33.9280 O   0  0  0  0  0  0  0  0  0  0  0  0
  -46.3570   16.1720  -33.7440 H   0  0  0  0  0  0  0  0  0  0  0  0
  1  2  1  0
  2  3  2  0
  3  9  1  0
  4  6  2  0
  5  4  1  0
  5  1  2  0
  6  3  1  0
  7 12  1  0
  7 10  1  0
  8 10  2  0
  9 11  1  0
  9  7  2  0
 11  8  1  0
 13  5  1  0
 14 15  2  0
 14 16  1  0
 16 13  1  0
 17 16  1  0
 18 22  2  0
 18 21  1  0
 19 23  1  0
 19 14  1  0
 20 21  1  0
 20 24  1  0
 21 19  1  0
 24 25  1  0
 24 23  1  0
 26 25  1  0
 27 39  1  0
 27 18  1  0
 28 31  1  0
 28 27  1  0
 29 28  1  0
 30 29  2  0
 32 33  1  1
 32 29  1  0
 34 35  1  0
 34 32  1  0
 35 32  1  0
 39 37  1  6
 39 38  1  0
 39 36  1  0
 40  1  1  0
 43 40  1  0
 43 41  1  1
 43 42  1  0
 44 49  1  0
 44 54  1  0
 45 44  1  0
 46 47  1  0
 46 45  1  0
 47 48  1  0
 48 49  1  0
 50 53  1  0
 51 50  2  0
 52 53  2  0
 53 43  1  0
 54 51  1  0
 54 55  2  0
 55 52  1  0
 56 47  1  0
 57 56  1  0
 58 57  2  0
 59 60  2  0
 59 58  1  0
 60 61  1  0
 61 62  1  0
 61 56  2  0
 62 63  1  0
 64 62  1  0
 65 58  1  0
 65 70  1  0
 66 65  2  0
 67 66  1  0
 67 68  2  0
 68 69  1  0
 69 70  2  0
 71 72  1  0
 71 66  1  0
M  ISO  4  40 101  43 101  44 100  54 100
M  END
>  <TORSDO>  (40) 
F 15

>  <SCORE>  (40) 
-14.905

>  <name>  (40) 
39

>  <ligand_id>  (40) 
39

>  <original_smiles>  (40) 
[H]Oc1c([H])c([H])c([H])c([H])c1-c1nnc(N([H])[H])c(N2C([H])([H])C([H])([H])N(c3nc([H])c(C(Oc4c([H])c(-c5sc([H])nc5C([H])([H])[H])c([H])c([H])c4C([H])([H])N([H])C(=O)C4([H])N(C(=O)C([H])(N([H])C(=O)C5(F)C([H])([H])C5([H])[H])C(C([H])([H])[H])(C([H])([H])[H])C([H])([H])[H])C([H])([H])C([H])(O[H])C4([H])[H])(C([H])([H])[H])C([H])([H])[H])c([H])c3[H])C([H])([H])C2([H])[H])c1[H]

>  <smiles>  (40) 
[H]Oc1c([H])c([H])c([H])c([H])c1-c1nnc(N([H])[H])c(N2C([H])([H])C([H])([H])N(c3nc([H])c(C(Oc4c([H])c(-c5sc([H])nc5C([H])([H])[H])c([H])c([H])c4C([H])([H])N([H])C(=O)C4([H])N(C(=O)C([H])(N([H])C(=O)C5(F)C([H])([H])C5([H])[H])C(C([H])([H])[H])(C([H])([H])[H])C([H])([H])[H])C([H])([H])C([H])(O[H])C4([H])[H])(C([H])([H])[H])C([H])([H])[H])c([H])c3[H])C([H])([H])C2([H])[H])c1[H]

$$$$
40:0:0
     RDKit          3D

 78 86  0  0  1  0  0  0  0  0999 V2000
  -37.3970   13.4820  -23.6980 C   0  0  0  0  0  0  0  0  0  0  0  0
  -36.6850   13.4260  -22.4730 C   0  0  0  0  0  3  0  0  0  0  0  0
  -35.4200   12.8030  -22.3870 C   0  0  0  0  0  0  0  0  0  0  0  0
  -35.5250   12.3480  -24.7830 C   0  0  0  0  0  3  0  0  0  0  0  0
  -36.8040   12.9410  -24.8640 C   0  0  0  0  0  0  0  0  0  0  0  0
  -34.8420   12.2770  -23.5590 C   0  0  0  0  0  3  0  0  0  0  0  0
  -35.2120   12.2030  -19.8880 C   0  0  0  0  0  0  0  0  0  0  0  0
  -33.0470   12.5620  -19.3290 C   0  0  0  0  0  3  0  0  0  0  0  0
  -34.7340   12.6550  -21.1030 C   0  0  0  0  0  0  0  0  0  0  0  0
  -34.2370   12.1530  -18.8890 N   0  0  0  0  0  0  0  0  0  0  0  0
  -33.0320   13.0550  -21.0120 S   0  0  0  0  0  0  0  0  0  0  0  0
  -36.6000   11.7510  -19.5430 C   0  0  0  0  0  1  0  0  0  0  0  0
  -37.5770   12.9590  -26.1860 C   0  0  0  0  0  2  0  0  0  0  0  0
  -36.2000   13.7150  -28.1050 C   0  0  0  0  0  0  0  0  0  0  0  0
  -36.4660   14.9090  -27.9510 O   0  0  0  0  0  0  0  0  0  0  0  0
  -36.7360   12.7460  -27.3600 N   0  0  0  0  0  0  0  0  0  0  0  0
  -36.4770   11.7920  -27.5670 H   0  0  0  0  0  0  0  0  0  0  0  0
  -36.1490   14.4270  -31.1320 C   0  0  0  0  0  0  0  0  0  0  0  0
  -35.1610   13.2680  -29.1470 C   0  0  0  0  0  3  0  0  0  0  0  0
  -33.6890   14.4920  -30.6240 C   0  0  0  0  0  2  0  0  0  0  0  0
  -35.0850   14.1320  -30.3400 N   0  0  0  0  0  0  0  0  0  0  0  0
  -37.2710   13.9510  -30.9190 O   0  0  0  0  0  0  0  0  0  0  0  0
  -33.7580   13.3150  -28.5160 C   0  0  0  0  0  2  0  0  0  0  0  0
  -32.8320   13.6750  -29.6580 C   0  0  0  0  0  3  0  0  0  0  0  0
  -32.3910   12.5030  -30.3260 O   0  0  0  0  0  0  0  0  0  0  0  0
  -33.1540   12.0260  -30.6390 H   0  0  0  0  0  0  0  0  0  0  0  0
  -35.9710   15.3460  -32.3680 C   0  0  0  0  0  3  0  0  0  0  0  0
  -36.7220   14.7350  -33.4770 N   0  0  0  0  0  0  0  0  0  0  0  0
  -36.2080   14.1950  -34.5910 C   0  0  0  0  0  0  0  0  0  0  0  0
  -34.9990   14.2290  -34.8370 O   0  0  0  0  0  0  0  0  0  0  0  0
  -37.7160   14.6060  -33.3350 H   0  0  0  0  0  0  0  0  0  0  0  0
  -37.2000   13.5450  -35.5180 C   0  0  1  0  0  0  0  0  0  0  0  0
  -38.4660   13.3990  -34.9740 F   0  0  0  0  0  0  0  0  0  0  0  0
  -37.1190   13.8230  -37.0000 C   0  0  0  0  0  2  0  0  0  0  0  0
  -36.7400   12.4590  -36.4670 C   0  0  0  0  0  2  0  0  0  0  0  0
  -35.7740   17.4510  -30.8850 C   0  0  0  0  0  1  0  0  0  0  0  0
  -36.0210   17.6860  -33.3440 C   0  0  0  0  0  1  0  0  0  0  0  0
  -37.9730   16.9490  -31.9610 C   0  0  0  0  0  1  0  0  0  0  0  0
  -36.4430   16.8270  -32.1330 C   0  0  1  0  0  0  0  0  0  0  0  0
  -38.6680   14.0080  -23.8280 O   0  0  0  0  0  0  0  0  0  0  0  0
  -39.9200   17.6000  -25.5420 C   0  0  0  0  0  3  0  0  0  0  0  0
  -38.3630   19.4010  -24.3030 C   0  0  0  0  0  3  0  0  0  0  0  0
  -39.2560   18.6190  -26.2340 C   0  0  0  0  0  0  0  0  0  0  0  0
  -39.6940   17.5500  -24.1590 C   0  0  0  0  0  0  0  0  0  0  0  0
  -40.8910   14.2970  -22.9720 C   0  0  0  0  0  2  0  0  0  0  0  0
  -41.1420   15.5480  -23.8120 C   0  0  0  0  0  2  0  0  0  0  0  0
  -39.2090   15.8960  -22.4490 C   0  0  0  0  0  2  0  0  0  0  0  0
  -39.4000   14.3940  -22.6620 C   0  0  0  0  0  3  0  0  0  0  0  0
  -38.4640   19.5130  -25.6180 N   0  0  0  0  0  0  0  0  0  0  0  0
  -38.9300   18.4700  -23.5500 N   0  0  0  0  0  0  0  0  0  0  0  0
  -40.1980   16.5460  -23.3130 N   0  0  0  0  0  0  0  0  0  0  0  0
  -40.2130   19.1160  -28.4970 N   0  0  0  0  0  0  0  0  0  0  0  0
  -39.9660   19.4130  -29.9300 C   0  0  0  0  0  2  0  0  0  0  0  0
  -41.2370   19.4010  -30.8060 C   0  0  0  0  0  2  0  0  0  0  0  0
  -42.2930   18.5910  -30.2060 N   0  0  0  0  0  0  0  0  0  0  0  0
  -42.7040   18.9410  -28.8470 C   0  0  0  0  0  2  0  0  0  0  0  0
  -41.5440   19.5050  -27.9850 C   0  0  0  0  0  2  0  0  0  0  0  0
  -39.1900   18.7200  -27.6940 C   0  0  0  0  0  3  0  0  0  0  0  0
  -37.9850   18.4180  -28.2010 N   0  0  0  0  0  0  0  0  0  0  0  0
  -37.2560   18.2500  -27.5240 H   0  0  0  0  0  0  0  0  0  0  0  0
  -37.7580   18.4710  -29.1760 H   0  0  0  0  0  0  0  0  0  0  0  0
  -43.2360   18.0170  -31.0910 C   0  0  0  0  0  0  0  0  0  0  0  0
  -44.5370   18.5310  -31.2760 C   0  0  0  0  0  3  0  0  0  0  0  0
  -45.4230   17.8750  -32.1760 C   0  0  0  0  0  0  0  0  0  0  0  0
  -44.9970   16.7650  -32.8430 N   0  0  0  0  0  0  0  0  0  0  0  0
  -43.7740   16.2590  -32.6760 N   0  0  0  0  0  0  0  0  0  0  0  0
  -42.9110   16.8580  -31.8310 C   0  0  0  0  0  0  0  0  0  0  0  0
  -41.6780   16.2470  -31.6820 N   0  0  0  0  0  0  0  0  0  0  0  0
  -41.2020   16.5360  -30.8370 H   0  0  0  0  0  0  0  0  0  0  0  0
  -41.6480   15.2530  -31.8590 H   0  0  0  0  0  0  0  0  0  0  0  0
  -46.8350   18.3220  -32.4390 C   0  0  0  0  0  0  0  0  0  0  0  0
  -47.7640   17.6270  -33.2820 C   0  0  0  0  0  0  0  0  0  0  0  0
  -49.0800   18.0960  -33.4660 C   0  0  0  0  0  3  0  0  0  0  0  0
  -49.5190   19.2640  -32.8250 C   0  0  0  0  0  3  0  0  0  0  0  0
  -48.6330   19.9720  -32.0050 C   0  0  0  0  0  3  0  0  0  0  0  0
  -47.3180   19.5070  -31.8220 C   0  0  0  0  0  3  0  0  0  0  0  0
  -47.4480   16.4790  -33.9560 O   0  0  0  0  0  0  0  0  0  0  0  0
  -46.5340   16.2400  -33.7950 H   0  0  0  0  0  0  0  0  0  0  0  0
  1  2  1  0
  2  3  2  0
  3  9  1  0
  4  6  2  0
  5  4  1  0
  5  1  2  0
  6  3  1  0
  7 12  1  0
  7 10  1  0
  8 10  2  0
  9 11  1  0
  9  7  2  0
 11  8  1  0
 13  5  1  0
 14 15  2  0
 14 16  1  0
 16 13  1  0
 17 16  1  0
 18 22  2  0
 18 21  1  0
 19 23  1  0
 19 14  1  0
 20 21  1  0
 20 24  1  0
 21 19  1  0
 24 25  1  0
 24 23  1  0
 26 25  1  0
 27 39  1  0
 27 18  1  0
 28 31  1  0
 28 27  1  0
 29 28  1  0
 30 29  2  0
 32 33  1  1
 32 29  1  0
 34 35  1  0
 34 32  1  0
 35 32  1  0
 39 37  1  6
 39 38  1  0
 39 36  1  0
 40  1  1  0
 41 44  1  0
 42 50  1  0
 43 49  1  0
 43 41  2  0
 44 50  2  0
 44 51  1  0
 45 48  1  0
 46 51  1  0
 46 45  1  0
 48 40  1  0
 48 47  1  0
 49 42  2  0
 51 47  1  0
 52 57  1  0
 52 58  1  0
 53 52  1  0
 54 55  1  0
 54 53  1  0
 55 56  1  0
 56 57  1  0
 58 59  1  0
 58 43  1  0
 59 60  1  0
 61 59  1  0
 62 55  1  0
 63 62  1  0
 64 63  2  0
 65 66  2  0
 65 64  1  0
 66 67  1  0
 67 68  1  0
 67 62  2  0
 68 69  1  0
 70 68  1  0
 71 64  1  0
 71 76  1  0
 72 71  2  0
 73 72  1  0
 73 74  2  0
 74 75  1  0
 75 76  2  0
 77 78  1  0
 77 72  1  0
M  ISO  4  40 101  48 101  52 100  58 100
M  END
>  <TORSDO>  (41) 
F 15

>  <SCORE>  (41) 
-15.016

>  <name>  (41) 
40

>  <ligand_id>  (41) 
40

>  <original_smiles>  (41) 
[H]Oc1c([H])c([H])c([H])c([H])c1-c1nnc(N([H])[H])c(N2C([H])([H])C([H])([H])N(C(c3nc([H])nc(N4C([H])([H])C([H])([H])C([H])(Oc5c([H])c(-c6sc([H])nc6C([H])([H])[H])c([H])c([H])c5C([H])([H])N([H])C(=O)C5([H])N(C(=O)C([H])(N([H])C(=O)C6(F)C([H])([H])C6([H])[H])C(C([H])([H])[H])(C([H])([H])[H])C([H])([H])[H])C([H])([H])C([H])(O[H])C5([H])[H])C4([H])[H])c3[H])=[N+]([H])[H])C([H])([H])C2([H])[H])c1[H]

>  <smiles>  (41) 
[H]Oc1c([H])c([H])c([H])c([H])c1-c1nnc(N([H])[H])c(N2C([H])([H])C([H])([H])N(C(c3nc([H])nc(N4C([H])([H])C([H])([H])C([H])(Oc5c([H])c(-c6sc([H])nc6C([H])([H])[H])c([H])c([H])c5C([H])([H])N([H])C(=O)C5([H])N(C(=O)C([H])(N([H])C(=O)C6(F)C([H])([H])C6([H])[H])C(C([H])([H])[H])(C([H])([H])[H])C([H])([H])[H])C([H])([H])C([H])(O[H])C5([H])[H])C4([H])[H])c3[H])=[N+]([H])[H])C([H])([H])C2([H])[H])c1[H]

$$$$
41:0:0
     RDKit          3D

 80 88  0  0  1  0  0  0  0  0999 V2000
  -38.7020   14.0140  -23.7280 O   0  0  0  0  0  0  0  0  0  0  0  0
  -40.3940   19.7640  -25.0530 C   0  0  0  0  0  3  0  0  0  0  0  0
  -40.6170   18.9420  -23.9300 C   0  0  0  0  0  3  0  0  0  0  0  0
  -39.4100   19.3720  -25.9880 C   0  0  0  0  0  0  0  0  0  0  0  0
  -38.5610   18.3040  -25.6540 C   0  0  0  0  0  0  0  0  0  0  0  0
  -39.8080   17.8080  -23.7630 C   0  0  0  0  0  0  0  0  0  0  0  0
  -39.3770   14.9660  -21.4460 C   0  0  0  0  0  2  0  0  0  0  0  0
  -40.9690   14.3520  -23.1600 C   0  0  0  0  0  2  0  0  0  0  0  0
  -39.1110   16.3390  -22.0500 C   0  0  0  0  0  2  0  0  0  0  0  0
  -40.8980   15.7700  -23.7600 C   0  0  0  0  0  2  0  0  0  0  0  0
  -39.6030   13.9510  -22.5920 C   0  0  0  0  0  3  0  0  0  0  0  0
  -37.4830   17.8330  -26.6060 C   0  0  0  0  0  1  0  0  0  0  0  0
  -38.7480   17.5520  -24.5570 N   0  0  0  0  0  0  0  0  0  0  0  0
  -40.2180   16.7740  -22.9100 N   0  0  0  0  0  0  0  0  0  0  0  0
  -40.3840   19.5680  -28.2320 N   0  0  0  0  0  0  0  0  0  0  0  0
  -40.1560   19.7750  -29.6760 C   0  0  0  0  0  2  0  0  0  0  0  0
  -41.3900   19.6110  -30.5740 C   0  0  0  0  0  2  0  0  0  0  0  0
  -42.3220   18.6280  -30.0480 N   0  0  0  0  0  0  0  0  0  0  0  0
  -42.8320   18.8640  -28.7100 C   0  0  0  0  0  2  0  0  0  0  0  0
  -41.7630   19.3650  -27.7210 C   0  0  0  0  0  2  0  0  0  0  0  0
  -39.3670   19.8510  -27.3690 C   0  0  0  0  0  3  0  0  0  0  0  0
  -38.2690   20.5030  -27.8010 N   0  0  0  0  0  0  0  0  0  0  0  0
  -38.2040   20.8560  -28.7450 H   0  0  0  0  0  0  0  0  0  0  0  0
  -37.5330   20.7780  -27.1660 H   0  0  0  0  0  0  0  0  0  0  0  0
  -43.1940   18.0340  -30.9900 C   0  0  0  0  0  0  0  0  0  0  0  0
  -44.5170   18.4720  -31.2160 C   0  0  0  0  0  3  0  0  0  0  0  0
  -45.3200   17.7810  -32.1660 C   0  0  0  0  0  0  0  0  0  0  0  0
  -44.7950   16.7200  -32.8420 N   0  0  0  0  0  0  0  0  0  0  0  0
  -43.5470   16.2880  -32.6340 N   0  0  0  0  0  0  0  0  0  0  0  0
  -42.7640   16.9190  -31.7390 C   0  0  0  0  0  0  0  0  0  0  0  0
  -41.5000   16.3920  -31.5470 N   0  0  0  0  0  0  0  0  0  0  0  0
  -41.0830   16.6940  -30.6760 H   0  0  0  0  0  0  0  0  0  0  0  0
  -41.3880   15.4090  -31.7510 H   0  0  0  0  0  0  0  0  0  0  0  0
  -46.7470   18.1400  -32.4800 C   0  0  0  0  0  0  0  0  0  0  0  0
  -47.5980   17.3950  -33.3600 C   0  0  0  0  0  0  0  0  0  0  0  0
  -48.9340   17.7830  -33.5910 C   0  0  0  0  0  3  0  0  0  0  0  0
  -49.4710   18.9150  -32.9610 C   0  0  0  0  0  3  0  0  0  0  0  0
  -48.6620   19.6690  -32.1020 C   0  0  0  0  0  3  0  0  0  0  0  0
  -47.3280   19.2880  -31.8730 C   0  0  0  0  0  3  0  0  0  0  0  0
  -47.1890   16.2730  -34.0300 O   0  0  0  0  0  0  0  0  0  0  0  0
  -46.2720   16.0790  -33.8390 H   0  0  0  0  0  0  0  0  0  0  0  0
  -37.4260   13.4890  -23.6660 C   0  0  0  0  0  0  0  0  0  0  0  0
  -36.6910   13.4130  -22.4610 C   0  0  0  0  0  3  0  0  0  0  0  0
  -35.4000   12.8660  -22.4020 C   0  0  0  0  0  0  0  0  0  0  0  0
  -35.5140   12.4650  -24.8050 C   0  0  0  0  0  3  0  0  0  0  0  0
  -36.8220   13.0070  -24.8550 C   0  0  0  0  0  0  0  0  0  0  0  0
  -34.8090   12.4000  -23.5900 C   0  0  0  0  0  3  0  0  0  0  0  0
  -35.1770   12.2900  -19.8990 C   0  0  0  0  0  0  0  0  0  0  0  0
  -33.0280   12.7300  -19.3410 C   0  0  0  0  0  3  0  0  0  0  0  0
  -34.7110   12.7450  -21.1170 C   0  0  0  0  0  0  0  0  0  0  0  0
  -34.2040   12.2860  -18.8970 N   0  0  0  0  0  0  0  0  0  0  0  0
  -33.0310   13.2180  -21.0240 S   0  0  0  0  0  0  0  0  0  0  0  0
  -36.5480   11.7950  -19.5470 C   0  0  0  0  0  1  0  0  0  0  0  0
  -37.5980   13.0250  -26.1750 C   0  0  0  0  0  2  0  0  0  0  0  0
  -36.2080   13.7380  -28.1050 C   0  0  0  0  0  0  0  0  0  0  0  0
  -36.4500   14.9370  -27.9580 O   0  0  0  0  0  0  0  0  0  0  0  0
  -36.7690   12.7850  -27.3550 N   0  0  0  0  0  0  0  0  0  0  0  0
  -36.5340   11.8230  -27.5580 H   0  0  0  0  0  0  0  0  0  0  0  0
  -36.1410   14.4600  -31.1260 C   0  0  0  0  0  0  0  0  0  0  0  0
  -35.1700   13.2780  -29.1440 C   0  0  0  0  0  3  0  0  0  0  0  0
  -33.6840   14.4890  -30.6160 C   0  0  0  0  0  2  0  0  0  0  0  0
  -35.0840   14.1450  -30.3340 N   0  0  0  0  0  0  0  0  0  0  0  0
  -37.2700   14.0030  -30.9140 O   0  0  0  0  0  0  0  0  0  0  0  0
  -33.7690   13.3100  -28.5100 C   0  0  0  0  0  2  0  0  0  0  0  0
  -32.8390   13.6590  -29.6550 C   0  0  0  0  0  3  0  0  0  0  0  0
  -32.4170   12.4810  -30.3280 O   0  0  0  0  0  0  0  0  0  0  0  0
  -33.1880   12.0240  -30.6490 H   0  0  0  0  0  0  0  0  0  0  0  0
  -35.9480   15.3820  -32.3610 C   0  0  0  0  0  3  0  0  0  0  0  0
  -36.7090   14.7860  -33.4730 N   0  0  0  0  0  0  0  0  0  0  0  0
  -36.2010   14.2320  -34.5820 C   0  0  0  0  0  0  0  0  0  0  0  0
  -34.9910   14.2370  -34.8230 O   0  0  0  0  0  0  0  0  0  0  0  0
  -37.7050   14.6820  -33.3350 H   0  0  0  0  0  0  0  0  0  0  0  0
  -37.2030   13.6010  -35.5120 C   0  0  1  0  0  0  0  0  0  0  0  0
  -38.4750   13.4890  -34.9740 F   0  0  0  0  0  0  0  0  0  0  0  0
  -37.1090   13.8690  -36.9950 C   0  0  0  0  0  2  0  0  0  0  0  0
  -36.7650   12.5000  -36.4540 C   0  0  0  0  0  2  0  0  0  0  0  0
  -35.7250   17.4790  -30.8660 C   0  0  0  0  0  1  0  0  0  0  0  0
  -35.9570   17.7270  -33.3260 C   0  0  0  0  0  1  0  0  0  0  0  0
  -37.9240   17.0170  -31.9480 C   0  0  0  0  0  1  0  0  0  0  0  0
  -36.3970   16.8700  -32.1190 C   0  0  1  0  0  0  0  0  0  0  0  0
  1 42  1  0
  2  3  1  0
  3  6  2  0
  4  5  1  0
  4  2  2  0
  5 13  2  0
  6 14  1  0
  8 11  1  0
  9  7  1  0
 10  8  1  0
 10 14  1  0
 11  1  1  0
 11  7  1  0
 12  5  1  0
 13  6  1  0
 14  9  1  0
 15 20  1  0
 15 21  1  0
 16 15  1  0
 17 18  1  0
 17 16  1  0
 18 19  1  0
 19 20  1  0
 21 22  1  0
 21  4  1  0
 22 24  1  0
 23 22  1  0
 25 18  1  0
 26 25  1  0
 27 26  2  0
 28 29  2  0
 28 27  1  0
 29 30  1  0
 30 31  1  0
 30 25  2  0
 31 32  1  0
 33 31  1  0
 34 27  1  0
 34 39  1  0
 35 34  2  0
 36 35  1  0
 36 37  2  0
 37 38  1  0
 38 39  2  0
 40 41  1  0
 40 35  1  0
 42 43  1  0
 43 44  2  0
 44 50  1  0
 45 47  2  0
 46 45  1  0
 46 42  2  0
 47 44  1  0
 48 53  1  0
 48 51  1  0
 49 51  2  0
 50 52  1  0
 50 48  2  0
 52 49  1  0
 54 46  1  0
 55 56  2  0
 55 57  1  0
 57 54  1  0
 58 57  1  0
 59 63  2  0
 59 62  1  0
 60 64  1  0
 60 55  1  0
 61 62  1  0
 61 65  1  0
 62 60  1  0
 65 66  1  0
 65 64  1  0
 67 66  1  0
 68 80  1  0
 68 59  1  0
 69 72  1  0
 69 68  1  0
 70 69  1  0
 71 70  2  0
 73 74  1  1
 73 70  1  0
 75 76  1  0
 75 73  1  0
 76 73  1  0
 80 78  1  6
 80 79  1  0
 80 77  1  0
M  ISO  4   1 101  11 101  15 100  21 100
M  END
>  <TORSDO>  (42) 
F 15

>  <SCORE>  (42) 
-14.998

>  <name>  (42) 
41

>  <ligand_id>  (42) 
41

>  <original_smiles>  (42) 
[H]Oc1c([H])c([H])c([H])c([H])c1-c1nnc(N([H])[H])c(N2C([H])([H])C([H])([H])N(C(c3c(C([H])([H])[H])nc(N4C([H])([H])C([H])([H])C([H])(Oc5c([H])c(-c6sc([H])nc6C([H])([H])[H])c([H])c([H])c5C([H])([H])N([H])C(=O)C5([H])N(C(=O)C([H])(N([H])C(=O)C6(F)C([H])([H])C6([H])[H])C(C([H])([H])[H])(C([H])([H])[H])C([H])([H])[H])C([H])([H])C([H])(O[H])C5([H])[H])C([H])([H])C4([H])[H])c([H])c3[H])=[N+]([H])[H])C([H])([H])C2([H])[H])c1[H]

>  <smiles>  (42) 
[H]Oc1c([H])c([H])c([H])c([H])c1-c1nnc(N([H])[H])c(N2C([H])([H])C([H])([H])N(C(c3c(C([H])([H])[H])nc(N4C([H])([H])C([H])([H])C([H])(Oc5c([H])c(-c6sc([H])nc6C([H])([H])[H])c([H])c([H])c5C([H])([H])N([H])C(=O)C5([H])N(C(=O)C([H])(N([H])C(=O)C6(F)C([H])([H])C6([H])[H])C(C([H])([H])[H])(C([H])([H])[H])C([H])([H])[H])C([H])([H])C([H])(O[H])C5([H])[H])C([H])([H])C4([H])[H])c([H])c3[H])=[N+]([H])[H])C([H])([H])C2([H])[H])c1[H]

$$$$
42:0:0
     RDKit          3D

 75 83  0  0  1  0  0  0  0  0999 V2000
  -37.4140   13.4460  -23.6700 C   0  0  0  0  0  0  0  0  0  0  0  0
  -36.7210   13.4120  -22.4440 C   0  0  0  0  0  3  0  0  0  0  0  0
  -35.4230   12.8710  -22.3640 C   0  0  0  0  0  0  0  0  0  0  0  0
  -35.5050   12.4160  -24.7700 C   0  0  0  0  0  3  0  0  0  0  0  0
  -36.8160   12.9380  -24.8450 C   0  0  0  0  0  0  0  0  0  0  0  0
  -34.8180   12.3890  -23.5420 C   0  0  0  0  0  3  0  0  0  0  0  0
  -35.1990   12.3180  -19.8590 C   0  0  0  0  0  0  0  0  0  0  0  0
  -33.0480   12.7550  -19.3060 C   0  0  0  0  0  3  0  0  0  0  0  0
  -34.7330   12.7680  -21.0790 C   0  0  0  0  0  0  0  0  0  0  0  0
  -34.2240   12.3140  -18.8590 N   0  0  0  0  0  0  0  0  0  0  0  0
  -33.0500   13.2300  -20.9930 S   0  0  0  0  0  0  0  0  0  0  0  0
  -36.5680   11.8240  -19.5060 C   0  0  0  0  0  1  0  0  0  0  0  0
  -37.5930   12.9520  -26.1620 C   0  0  0  0  0  2  0  0  0  0  0  0
  -36.2030   13.7140  -28.0710 C   0  0  0  0  0  0  0  0  0  0  0  0
  -36.4530   14.9100  -27.9040 O   0  0  0  0  0  0  0  0  0  0  0  0
  -36.7560   12.7430  -27.3390 N   0  0  0  0  0  0  0  0  0  0  0  0
  -36.5210   11.7860  -27.5640 H   0  0  0  0  0  0  0  0  0  0  0  0
  -36.1250   14.4540  -31.0900 C   0  0  0  0  0  0  0  0  0  0  0  0
  -35.1620   13.2660  -29.1090 C   0  0  0  0  0  3  0  0  0  0  0  0
  -33.6720   14.4850  -30.5690 C   0  0  0  0  0  2  0  0  0  0  0  0
  -35.0700   14.1390  -30.2940 N   0  0  0  0  0  0  0  0  0  0  0  0
  -37.2530   13.9890  -30.8870 O   0  0  0  0  0  0  0  0  0  0  0  0
  -33.7660   13.2960  -28.4660 C   0  0  0  0  0  2  0  0  0  0  0  0
  -32.8280   13.6560  -29.6010 C   0  0  0  0  0  3  0  0  0  0  0  0
  -32.3890   12.4880  -30.2760 O   0  0  0  0  0  0  0  0  0  0  0  0
  -33.1520   12.0200  -30.6010 H   0  0  0  0  0  0  0  0  0  0  0  0
  -35.9290   15.3780  -32.3200 C   0  0  0  0  0  3  0  0  0  0  0  0
  -36.6860   14.7870  -33.4370 N   0  0  0  0  0  0  0  0  0  0  0  0
  -36.1760   14.2410  -34.5500 C   0  0  0  0  0  0  0  0  0  0  0  0
  -34.9660   14.2500  -34.7880 O   0  0  0  0  0  0  0  0  0  0  0  0
  -37.6810   14.6780  -33.3000 H   0  0  0  0  0  0  0  0  0  0  0  0
  -37.1740   13.6120  -35.4870 C   0  0  1  0  0  0  0  0  0  0  0  0
  -38.4460   13.4910  -34.9510 F   0  0  0  0  0  0  0  0  0  0  0  0
  -37.0790   13.8850  -36.9700 C   0  0  0  0  0  2  0  0  0  0  0  0
  -36.7290   12.5170  -36.4310 C   0  0  0  0  0  2  0  0  0  0  0  0
  -35.6970   17.4750  -30.8270 C   0  0  0  0  0  1  0  0  0  0  0  0
  -35.9530   17.7250  -33.2860 C   0  0  0  0  0  1  0  0  0  0  0  0
  -37.9070   17.0070  -31.8930 C   0  0  0  0  0  1  0  0  0  0  0  0
  -36.3810   16.8660  -32.0750 C   0  0  1  0  0  0  0  0  0  0  0  0
  -38.6600   14.0090  -23.7080 O   0  0  0  0  0  0  0  0  0  0  0  0
  -40.1570   17.3600  -23.5940 C   0  0  0  0  0  3  0  0  0  0  0  0
  -39.9540   15.9860  -23.3580 C   0  0  0  0  0  3  0  0  0  0  0  0
  -37.6610   16.1820  -24.1650 C   0  0  0  0  0  3  0  0  0  0  0  0
  -39.1330   18.1130  -24.2000 C   0  0  0  0  0  0  0  0  0  0  0  0
  -37.8550   17.5460  -24.4130 C   0  0  0  0  0  0  0  0  0  0  0  0
  -38.7350   15.3800  -23.7150 C   0  0  0  0  0  0  0  0  0  0  0  0
  -39.4520   19.4070  -24.9210 C   0  0  0  0  0  2  0  0  0  0  0  0
  -36.7560   18.3450  -25.1100 C   0  0  0  0  0  2  0  0  0  0  0  0
  -37.2950   19.3030  -26.1960 C   0  0  0  0  0  2  0  0  0  0  0  0
  -38.8310   19.2270  -26.3230 C   0  0  0  0  0  3  0  0  0  0  0  0
  -40.3110   19.5300  -28.2330 N   0  0  0  0  0  0  0  0  0  0  0  0
  -40.0780   19.6120  -29.6810 C   0  0  0  0  0  2  0  0  0  0  0  0
  -41.3500   19.5890  -30.5390 C   0  0  0  0  0  2  0  0  0  0  0  0
  -42.2870   18.6060  -30.0250 N   0  0  0  0  0  0  0  0  0  0  0  0
  -42.7390   18.7850  -28.6540 C   0  0  0  0  0  2  0  0  0  0  0  0
  -41.6970   19.4710  -27.7380 C   0  0  0  0  0  2  0  0  0  0  0  0
  -39.3990   20.1100  -27.4250 C   0  0  0  0  0  0  0  0  0  0  0  0
  -38.8940   21.2150  -27.6500 O   0  0  0  0  0  0  0  0  0  0  0  0
  -43.1610   18.0030  -30.9570 C   0  0  0  0  0  0  0  0  0  0  0  0
  -44.4780   18.4570  -31.1930 C   0  0  0  0  0  3  0  0  0  0  0  0
  -45.2880   17.7660  -32.1360 C   0  0  0  0  0  0  0  0  0  0  0  0
  -44.7790   16.6860  -32.7930 N   0  0  0  0  0  0  0  0  0  0  0  0
  -43.5410   16.2370  -32.5760 N   0  0  0  0  0  0  0  0  0  0  0  0
  -42.7470   16.8680  -31.6890 C   0  0  0  0  0  0  0  0  0  0  0  0
  -41.4930   16.3200  -31.4890 N   0  0  0  0  0  0  0  0  0  0  0  0
  -41.0570   16.6640  -30.6430 H   0  0  0  0  0  0  0  0  0  0  0  0
  -41.4300   15.3200  -31.6130 H   0  0  0  0  0  0  0  0  0  0  0  0
  -46.7090   18.1410  -32.4590 C   0  0  0  0  0  0  0  0  0  0  0  0
  -47.5690   17.3940  -33.3310 C   0  0  0  0  0  0  0  0  0  0  0  0
  -48.8980   17.7970  -33.5730 C   0  0  0  0  0  3  0  0  0  0  0  0
  -49.4190   18.9480  -32.9670 C   0  0  0  0  0  3  0  0  0  0  0  0
  -48.6010   19.7070  -32.1170 C   0  0  0  0  0  3  0  0  0  0  0  0
  -47.2750   19.3070  -31.8730 C   0  0  0  0  0  3  0  0  0  0  0  0
  -47.1720   16.2570  -33.9770 O   0  0  0  0  0  0  0  0  0  0  0  0
  -46.2550   16.0650  -33.7760 H   0  0  0  0  0  0  0  0  0  0  0  0
  1  2  1  0
  2  3  2  0
  3  9  1  0
  4  6  2  0
  5  4  1  0
  5  1  2  0
  6  3  1  0
  7 12  1  0
  7 10  1  0
  8 10  2  0
  9 11  1  0
  9  7  2  0
 11  8  1  0
 13  5  1  0
 14 15  2  0
 14 16  1  0
 16 13  1  0
 17 16  1  0
 18 22  2  0
 18 21  1  0
 19 23  1  0
 19 14  1  0
 20 21  1  0
 20 24  1  0
 21 19  1  0
 24 25  1  0
 24 23  1  0
 26 25  1  0
 27 39  1  0
 27 18  1  0
 28 31  1  0
 28 27  1  0
 29 28  1  0
 30 29  2  0
 32 33  1  1
 32 29  1  0
 34 35  1  0
 34 32  1  0
 35 32  1  0
 39 37  1  6
 39 38  1  0
 39 36  1  0
 40  1  1  0
 41 42  1  0
 43 46  1  0
 44 41  2  0
 45 44  1  0
 45 43  2  0
 46 40  1  0
 46 42  2  0
 47 44  1  0
 48 45  1  0
 49 48  1  0
 50 57  1  0
 50 49  1  0
 50 47  1  0
 51 56  1  0
 51 57  1  0
 52 51  1  0
 53 54  1  0
 53 52  1  0
 54 55  1  0
 55 56  1  0
 58 57  2  0
 59 54  1  0
 60 59  1  0
 61 60  2  0
 62 63  2  0
 62 61  1  0
 63 64  1  0
 64 65  1  0
 64 59  2  0
 65 66  1  0
 67 65  1  0
 68 61  1  0
 68 73  1  0
 69 68  2  0
 70 69  1  0
 70 71  2  0
 71 72  1  0
 72 73  2  0
 74 75  1  0
 74 69  1  0
M  ISO  4  40 101  46 101  51 100  57 100
M  END
>  <TORSDO>  (43) 
F 15

>  <SCORE>  (43) 
-14.946

>  <name>  (43) 
42

>  <ligand_id>  (43) 
42

>  <original_smiles>  (43) 
[H]Oc1c([H])c([H])c([H])c([H])c1-c1nnc(N([H])[H])c(N2C([H])([H])C([H])([H])N(C(=O)C3([H])C([H])([H])c4c([H])c([H])c(Oc5c([H])c(-c6sc([H])nc6C([H])([H])[H])c([H])c([H])c5C([H])([H])N([H])C(=O)C5([H])N(C(=O)C([H])(N([H])C(=O)C6(F)C([H])([H])C6([H])[H])C(C([H])([H])[H])(C([H])([H])[H])C([H])([H])[H])C([H])([H])C([H])(O[H])C5([H])[H])c([H])c4C([H])([H])C3([H])[H])C([H])([H])C2([H])[H])c1[H]

>  <smiles>  (43) 
[H]Oc1c([H])c([H])c([H])c([H])c1-c1nnc(N([H])[H])c(N2C([H])([H])C([H])([H])N(C(=O)C3([H])C([H])([H])c4c([H])c([H])c(Oc5c([H])c(-c6sc([H])nc6C([H])([H])[H])c([H])c([H])c5C([H])([H])N([H])C(=O)C5([H])N(C(=O)C([H])(N([H])C(=O)C6(F)C([H])([H])C6([H])[H])C(C([H])([H])[H])(C([H])([H])[H])C([H])([H])[H])C([H])([H])C([H])(O[H])C5([H])[H])c([H])c4C([H])([H])C3([H])[H])C([H])([H])C2([H])[H])c1[H]

$$$$
43:0:0
     RDKit          3D

 74 82  0  0  1  0  0  0  0  0999 V2000
  -37.4300   13.5010  -23.7220 C   0  0  0  0  0  0  0  0  0  0  0  0
  -36.7210   13.4650  -22.4940 C   0  0  0  0  0  3  0  0  0  0  0  0
  -35.4410   12.8820  -22.4000 C   0  0  0  0  0  0  0  0  0  0  0  0
  -35.5430   12.3790  -24.7890 C   0  0  0  0  0  3  0  0  0  0  0  0
  -36.8380   12.9380  -24.8760 C   0  0  0  0  0  0  0  0  0  0  0  0
  -34.8520   12.3570  -23.5670 C   0  0  0  0  0  3  0  0  0  0  0  0
  -35.2160   12.3360  -19.8900 C   0  0  0  0  0  0  0  0  0  0  0  0
  -33.0610   12.7700  -19.3420 C   0  0  0  0  0  3  0  0  0  0  0  0
  -34.7510   12.7780  -21.1140 C   0  0  0  0  0  0  0  0  0  0  0  0
  -34.2390   12.3360  -18.8910 N   0  0  0  0  0  0  0  0  0  0  0  0
  -33.0630   13.2310  -21.0310 S   0  0  0  0  0  0  0  0  0  0  0  0
  -36.5860   11.8480  -19.5330 C   0  0  0  0  0  1  0  0  0  0  0  0
  -37.6130   12.9180  -26.1940 C   0  0  0  0  0  2  0  0  0  0  0  0
  -36.2290   13.6850  -28.1030 C   0  0  0  0  0  0  0  0  0  0  0  0
  -36.4950   14.8790  -27.9410 O   0  0  0  0  0  0  0  0  0  0  0  0
  -36.7720   12.7110  -27.3680 N   0  0  0  0  0  0  0  0  0  0  0  0
  -36.5240   11.7550  -27.5870 H   0  0  0  0  0  0  0  0  0  0  0  0
  -36.1570   14.4240  -31.1240 C   0  0  0  0  0  0  0  0  0  0  0  0
  -35.1820   13.2450  -29.1410 C   0  0  0  0  0  3  0  0  0  0  0  0
  -33.7020   14.4760  -30.6030 C   0  0  0  0  0  2  0  0  0  0  0  0
  -35.1000   14.1170  -30.3280 N   0  0  0  0  0  0  0  0  0  0  0  0
  -37.2810   13.9500  -30.9190 O   0  0  0  0  0  0  0  0  0  0  0  0
  -33.7840   13.2880  -28.5010 C   0  0  0  0  0  2  0  0  0  0  0  0
  -32.8520   13.6530  -29.6390 C   0  0  0  0  0  3  0  0  0  0  0  0
  -32.4130   12.4840  -30.3140 O   0  0  0  0  0  0  0  0  0  0  0  0
  -33.1770   12.0150  -30.6340 H   0  0  0  0  0  0  0  0  0  0  0  0
  -35.9690   15.3510  -32.3540 C   0  0  0  0  0  3  0  0  0  0  0  0
  -36.7240   14.7550  -33.4690 N   0  0  0  0  0  0  0  0  0  0  0  0
  -36.2130   14.2160  -34.5850 C   0  0  0  0  0  0  0  0  0  0  0  0
  -35.0040   14.2370  -34.8280 O   0  0  0  0  0  0  0  0  0  0  0  0
  -37.7190   14.6390  -33.3290 H   0  0  0  0  0  0  0  0  0  0  0  0
  -37.2100   13.5840  -35.5190 C   0  0  1  0  0  0  0  0  0  0  0  0
  -38.4800   13.4510  -34.9790 F   0  0  0  0  0  0  0  0  0  0  0  0
  -37.1230   13.8690  -37.0000 C   0  0  0  0  0  2  0  0  0  0  0  0
  -36.7630   12.4980  -36.4740 C   0  0  0  0  0  2  0  0  0  0  0  0
  -35.7490   17.4460  -30.8560 C   0  0  0  0  0  1  0  0  0  0  0  0
  -36.0010   17.6990  -33.3140 C   0  0  0  0  0  1  0  0  0  0  0  0
  -37.9540   16.9690  -31.9270 C   0  0  0  0  0  1  0  0  0  0  0  0
  -36.4260   16.8350  -32.1060 C   0  0  1  0  0  0  0  0  0  0  0  0
  -38.6970   14.0330  -23.8470 O   0  0  0  0  0  0  0  0  0  0  0  0
  -40.5530   15.4150  -23.2220 C   0  0  0  0  0  2  0  0  0  0  0  0
  -40.5480   16.2990  -24.4650 C   0  0  0  0  0  2  0  0  0  0  0  0
  -38.3690   16.3930  -23.4650 C   0  0  0  0  0  2  0  0  0  0  0  0
  -39.0750   15.1120  -22.9920 C   0  0  0  0  0  3  0  0  0  0  0  0
  -39.2690   17.0020  -24.4390 N   0  0  0  0  0  0  0  0  0  0  0  0
  -40.3090   19.1810  -28.4160 N   0  0  0  0  0  0  0  0  0  0  0  0
  -40.0410   19.5210  -29.8190 C   0  0  0  0  0  2  0  0  0  0  0  0
  -41.3130   19.4970  -30.7090 C   0  0  0  0  0  2  0  0  0  0  0  0
  -42.3480   18.6220  -30.1550 N   0  0  0  0  0  0  0  0  0  0  0  0
  -42.7520   18.8370  -28.7660 C   0  0  0  0  0  2  0  0  0  0  0  0
  -41.6490   19.5340  -27.9360 C   0  0  0  0  0  2  0  0  0  0  0  0
  -37.4410   17.6750  -26.0170 C   0  0  0  0  0  3  0  0  0  0  0  0
  -38.8040   17.5740  -25.6430 C   0  0  0  0  0  0  0  0  0  0  0  0
  -39.3350   18.6340  -27.5950 C   0  0  0  0  0  0  0  0  0  0  0  0
  -37.0920   18.2520  -27.1920 N   0  0  0  0  0  0  0  0  0  0  0  0
  -39.7520   18.0750  -26.4590 N   0  0  0  0  0  0  0  0  0  0  0  0
  -38.0550   18.7370  -27.9920 N   0  0  0  0  0  0  0  0  0  0  0  0
  -43.2610   18.0280  -31.0530 C   0  0  0  0  0  0  0  0  0  0  0  0
  -44.5630   18.5290  -31.2640 C   0  0  0  0  0  3  0  0  0  0  0  0
  -45.4250   17.8540  -32.1720 C   0  0  0  0  0  0  0  0  0  0  0  0
  -44.9770   16.7410  -32.8190 N   0  0  0  0  0  0  0  0  0  0  0  0
  -43.7530   16.2440  -32.6210 N   0  0  0  0  0  0  0  0  0  0  0  0
  -42.9120   16.8610  -31.7680 C   0  0  0  0  0  0  0  0  0  0  0  0
  -41.6790   16.2630  -31.5800 N   0  0  0  0  0  0  0  0  0  0  0  0
  -41.2220   16.5950  -30.7390 H   0  0  0  0  0  0  0  0  0  0  0  0
  -41.6510   15.2610  -31.7050 H   0  0  0  0  0  0  0  0  0  0  0  0
  -46.8340   18.2880  -32.4680 C   0  0  0  0  0  0  0  0  0  0  0  0
  -47.7430   17.5750  -33.3190 C   0  0  0  0  0  0  0  0  0  0  0  0
  -49.0580   18.0340  -33.5340 C   0  0  0  0  0  3  0  0  0  0  0  0
  -49.5170   19.2080  -32.9210 C   0  0  0  0  0  3  0  0  0  0  0  0
  -48.6510   19.9330  -32.0910 C   0  0  0  0  0  3  0  0  0  0  0  0
  -47.3370   19.4770  -31.8750 C   0  0  0  0  0  3  0  0  0  0  0  0
  -47.4080   16.4200  -33.9700 O   0  0  0  0  0  0  0  0  0  0  0  0
  -46.4970   16.1870  -33.7900 H   0  0  0  0  0  0  0  0  0  0  0  0
  1  2  1  0
  2  3  2  0
  3  9  1  0
  4  6  2  0
  5  4  1  0
  5  1  2  0
  6  3  1  0
  7 12  1  0
  7 10  1  0
  8 10  2  0
  9 11  1  0
  9  7  2  0
 11  8  1  0
 13  5  1  0
 14 15  2  0
 14 16  1  0
 16 13  1  0
 17 16  1  0
 18 22  2  0
 18 21  1  0
 19 23  1  0
 19 14  1  0
 20 21  1  0
 20 24  1  0
 21 19  1  0
 24 25  1  0
 24 23  1  0
 26 25  1  0
 27 39  1  0
 27 18  1  0
 28 31  1  0
 28 27  1  0
 29 28  1  0
 30 29  2  0
 32 33  1  1
 32 29  1  0
 34 35  1  0
 34 32  1  0
 35 32  1  0
 39 37  1  6
 39 38  1  0
 39 36  1  0
 40  1  1  0
 41 44  1  0
 42 45  1  0
 42 41  1  0
 43 44  1  0
 44 40  1  0
 45 43  1  0
 46 51  1  0
 46 54  1  0
 47 46  1  0
 48 49  1  0
 48 47  1  0
 49 50  1  0
 50 51  1  0
 52 53  2  0
 53 45  1  0
 54 56  2  0
 55 52  1  0
 56 53  1  0
 57 54  1  0
 57 55  2  0
 58 49  1  0
 59 58  1  0
 60 59  2  0
 61 62  2  0
 61 60  1  0
 62 63  1  0
 63 64  1  0
 63 58  2  0
 64 65  1  0
 66 64  1  0
 67 60  1  0
 67 72  1  0
 68 67  2  0
 69 68  1  0
 69 70  2  0
 70 71  1  0
 71 72  2  0
 73 74  1  0
 73 68  1  0
M  ISO  4  40 101  44 101  46 100  54 100
M  END
>  <TORSDO>  (44) 
F 15

>  <SCORE>  (44) 
-14.992

>  <name>  (44) 
43

>  <ligand_id>  (44) 
43

>  <original_smiles>  (44) 
[H]Oc1c([H])c([H])c([H])c([H])c1-c1nnc(N([H])[H])c(N2C([H])([H])C([H])([H])N(c3nnc([H])c(N4C([H])([H])C([H])([H])C([H])(Oc5c([H])c(-c6sc([H])nc6C([H])([H])[H])c([H])c([H])c5C([H])([H])N([H])C(=O)C5([H])N(C(=O)C([H])(N([H])C(=O)C6(F)C([H])([H])C6([H])[H])C(C([H])([H])[H])(C([H])([H])[H])C([H])([H])[H])C([H])([H])C([H])(O[H])C5([H])[H])C4([H])[H])n3)C([H])([H])C2([H])[H])c1[H]

>  <smiles>  (44) 
[H]Oc1c([H])c([H])c([H])c([H])c1-c1nnc(N([H])[H])c(N2C([H])([H])C([H])([H])N(c3nnc([H])c(N4C([H])([H])C([H])([H])C([H])(Oc5c([H])c(-c6sc([H])nc6C([H])([H])[H])c([H])c([H])c5C([H])([H])N([H])C(=O)C5([H])N(C(=O)C([H])(N([H])C(=O)C6(F)C([H])([H])C6([H])[H])C(C([H])([H])[H])(C([H])([H])[H])C([H])([H])[H])C([H])([H])C([H])(O[H])C5([H])[H])C4([H])[H])n3)C([H])([H])C2([H])[H])c1[H]

$$$$
44:0:0
     RDKit          3D

 79 87  0  0  1  0  0  0  0  0999 V2000
  -38.6150   14.0010  -23.8520 O   0  0  0  0  0  0  0  0  0  0  0  0
  -39.9120   17.5510  -25.5830 C   0  0  0  0  0  3  0  0  0  0  0  0
  -38.9610   19.6580  -24.0890 C   0  0  0  0  0  3  0  0  0  0  0  0
  -39.3790   18.6710  -26.2450 C   0  0  0  0  0  0  0  0  0  0  0  0
  -38.8860   19.7480  -25.4870 C   0  0  0  0  0  0  0  0  0  0  0  0
  -39.9130   17.5380  -24.1730 C   0  0  0  0  0  0  0  0  0  0  0  0
  -40.8540   14.1540  -23.0970 C   0  0  0  0  0  2  0  0  0  0  0  0
  -41.1240   15.3610  -23.9920 C   0  0  0  0  0  2  0  0  0  0  0  0
  -39.3050   15.8740  -22.5200 C   0  0  0  0  0  2  0  0  0  0  0  0
  -39.3930   14.3580  -22.7110 C   0  0  0  0  0  3  0  0  0  0  0  0
  -38.2890   20.9790  -26.1460 C   0  0  0  0  0  1  0  0  0  0  0  0
  -39.4570   18.5790  -23.4500 N   0  0  0  0  0  0  0  0  0  0  0  0
  -40.3260   16.4370  -23.4090 N   0  0  0  0  0  0  0  0  0  0  0  0
  -40.1920   19.0940  -28.5480 N   0  0  0  0  0  0  0  0  0  0  0  0
  -39.9170   19.3420  -29.9830 C   0  0  0  0  0  2  0  0  0  0  0  0
  -41.1890   19.3640  -30.8640 C   0  0  0  0  0  2  0  0  0  0  0  0
  -42.2600   18.5650  -30.2730 N   0  0  0  0  0  0  0  0  0  0  0  0
  -42.6700   18.9050  -28.9100 C   0  0  0  0  0  2  0  0  0  0  0  0
  -41.5240   19.5200  -28.0710 C   0  0  0  0  0  2  0  0  0  0  0  0
  -39.2190   18.6820  -27.6950 C   0  0  0  0  0  3  0  0  0  0  0  0
  -38.0190   18.2810  -28.1380 N   0  0  0  0  0  0  0  0  0  0  0  0
  -37.3580   17.9440  -27.4540 H   0  0  0  0  0  0  0  0  0  0  0  0
  -37.7900   18.1930  -29.1120 H   0  0  0  0  0  0  0  0  0  0  0  0
  -43.2060   17.9980  -31.1580 C   0  0  0  0  0  0  0  0  0  0  0  0
  -44.5150   18.5050  -31.3220 C   0  0  0  0  0  3  0  0  0  0  0  0
  -45.4040   17.8580  -32.2230 C   0  0  0  0  0  0  0  0  0  0  0  0
  -44.9780   16.7610  -32.9130 N   0  0  0  0  0  0  0  0  0  0  0  0
  -43.7510   16.2580  -32.7610 N   0  0  0  0  0  0  0  0  0  0  0  0
  -42.8830   16.8510  -31.9170 C   0  0  0  0  0  0  0  0  0  0  0  0
  -41.6460   16.2480  -31.7780 N   0  0  0  0  0  0  0  0  0  0  0  0
  -41.1770   16.5360  -30.9310 H   0  0  0  0  0  0  0  0  0  0  0  0
  -41.6100   15.2560  -31.9560 H   0  0  0  0  0  0  0  0  0  0  0  0
  -46.8200   18.3050  -32.4690 C   0  0  0  0  0  0  0  0  0  0  0  0
  -47.7530   17.6170  -33.3120 C   0  0  0  0  0  0  0  0  0  0  0  0
  -49.0730   18.0830  -33.4750 C   0  0  0  0  0  3  0  0  0  0  0  0
  -49.5130   19.2410  -32.8180 C   0  0  0  0  0  3  0  0  0  0  0  0
  -48.6210   19.9410  -31.9940 C   0  0  0  0  0  3  0  0  0  0  0  0
  -47.3020   19.4810  -31.8300 C   0  0  0  0  0  3  0  0  0  0  0  0
  -47.4420   16.4780  -34.0010 O   0  0  0  0  0  0  0  0  0  0  0  0
  -46.5250   16.2400  -33.8560 H   0  0  0  0  0  0  0  0  0  0  0  0
  -37.3520   13.4770  -23.7000 C   0  0  0  0  0  0  0  0  0  0  0  0
  -36.6480   13.4260  -22.4680 C   0  0  0  0  0  3  0  0  0  0  0  0
  -35.3770   12.8210  -22.3780 C   0  0  0  0  0  0  0  0  0  0  0  0
  -35.4710   12.3570  -24.7760 C   0  0  0  0  0  3  0  0  0  0  0  0
  -36.7560   12.9350  -24.8620 C   0  0  0  0  0  0  0  0  0  0  0  0
  -34.7890   12.3040  -23.5520 C   0  0  0  0  0  3  0  0  0  0  0  0
  -35.1690   12.2160  -19.8800 C   0  0  0  0  0  0  0  0  0  0  0  0
  -33.0130   12.6160  -19.3050 C   0  0  0  0  0  3  0  0  0  0  0  0
  -34.6930   12.6850  -21.0900 C   0  0  0  0  0  0  0  0  0  0  0  0
  -34.1980   12.1840  -18.8750 N   0  0  0  0  0  0  0  0  0  0  0  0
  -33.0000   13.1210  -20.9840 S   0  0  0  0  0  0  0  0  0  0  0  0
  -36.5470   11.7310  -19.5380 C   0  0  0  0  0  1  0  0  0  0  0  0
  -37.5260   12.9390  -26.1840 C   0  0  0  0  0  2  0  0  0  0  0  0
  -36.1500   13.6970  -28.1020 C   0  0  0  0  0  0  0  0  0  0  0  0
  -36.4240   14.8910  -27.9550 O   0  0  0  0  0  0  0  0  0  0  0  0
  -36.6840   12.7270  -27.3560 N   0  0  0  0  0  0  0  0  0  0  0  0
  -36.4170   11.7740  -27.5590 H   0  0  0  0  0  0  0  0  0  0  0  0
  -36.0790   14.4120  -31.1300 C   0  0  0  0  0  0  0  0  0  0  0  0
  -35.1060   13.2510  -29.1380 C   0  0  0  0  0  3  0  0  0  0  0  0
  -33.6220   14.4700  -30.6070 C   0  0  0  0  0  2  0  0  0  0  0  0
  -35.0200   14.1140  -30.3310 N   0  0  0  0  0  0  0  0  0  0  0  0
  -37.2020   13.9400  -30.9210 O   0  0  0  0  0  0  0  0  0  0  0  0
  -33.7070   13.2990  -28.4980 C   0  0  0  0  0  2  0  0  0  0  0  0
  -32.7730   13.6530  -29.6370 C   0  0  0  0  0  3  0  0  0  0  0  0
  -32.3300   12.4820  -30.3040 O   0  0  0  0  0  0  0  0  0  0  0  0
  -33.0920   12.0120  -30.6270 H   0  0  0  0  0  0  0  0  0  0  0  0
  -35.8930   15.3320  -32.3650 C   0  0  0  0  0  3  0  0  0  0  0  0
  -36.6440   14.7250  -33.4760 N   0  0  0  0  0  0  0  0  0  0  0  0
  -36.1290   14.1910  -34.5920 C   0  0  0  0  0  0  0  0  0  0  0  0
  -34.9210   14.2260  -34.8380 O   0  0  0  0  0  0  0  0  0  0  0  0
  -37.6360   14.5920  -33.3370 H   0  0  0  0  0  0  0  0  0  0  0  0
  -37.1200   13.5430  -35.5210 C   0  0  1  0  0  0  0  0  0  0  0  0
  -38.3880   13.4020  -34.9790 F   0  0  0  0  0  0  0  0  0  0  0  0
  -37.0350   13.8230  -37.0040 C   0  0  0  0  0  2  0  0  0  0  0  0
  -36.6600   12.4590  -36.4700 C   0  0  0  0  0  2  0  0  0  0  0  0
  -35.7100   17.4280  -30.8640 C   0  0  0  0  0  1  0  0  0  0  0  0
  -35.9090   17.6790  -33.3250 C   0  0  0  0  0  1  0  0  0  0  0  0
  -37.8900   16.9470  -31.9820 C   0  0  0  0  0  1  0  0  0  0  0  0
  -36.3580   16.8150  -32.1280 C   0  0  1  0  0  0  0  0  0  0  0  0
  1 41  1  0
  2  6  1  0
  3 12  1  0
  4  2  2  0
  4  5  1  0
  5  3  2  0
  6 12  2  0
  6 13  1  0
  7 10  1  0
  8 13  1  0
  8  7  1  0
 10  1  1  0
 10  9  1  0
 11  5  1  0
 13  9  1  0
 14 19  1  0
 14 20  1  0
 15 14  1  0
 16 17  1  0
 16 15  1  0
 17 18  1  0
 18 19  1  0
 20 21  1  0
 20  4  1  0
 21 22  1  0
 23 21  1  0
 24 17  1  0
 25 24  1  0
 26 25  2  0
 27 28  2  0
 27 26  1  0
 28 29  1  0
 29 30  1  0
 29 24  2  0
 30 31  1  0
 32 30  1  0
 33 26  1  0
 33 38  1  0
 34 33  2  0
 35 34  1  0
 35 36  2  0
 36 37  1  0
 37 38  2  0
 39 40  1  0
 39 34  1  0
 41 42  1  0
 42 43  2  0
 43 49  1  0
 44 46  2  0
 45 44  1  0
 45 41  2  0
 46 43  1  0
 47 52  1  0
 47 50  1  0
 48 50  2  0
 49 51  1  0
 49 47  2  0
 51 48  1  0
 53 45  1  0
 54 55  2  0
 54 56  1  0
 56 53  1  0
 57 56  1  0
 58 62  2  0
 58 61  1  0
 59 63  1  0
 59 54  1  0
 60 61  1  0
 60 64  1  0
 61 59  1  0
 64 65  1  0
 64 63  1  0
 66 65  1  0
 67 79  1  0
 67 58  1  0
 68 71  1  0
 68 67  1  0
 69 68  1  0
 70 69  2  0
 72 73  1  1
 72 69  1  0
 74 75  1  0
 74 72  1  0
 75 72  1  0
 79 77  1  6
 79 78  1  0
 79 76  1  0
M  ISO  4   1 101  10 101  14 100  20 100
M  END
>  <TORSDO>  (45) 
F 15

>  <SCORE>  (45) 
-15.090

>  <name>  (45) 
44

>  <ligand_id>  (45) 
44

>  <original_smiles>  (45) 
[H]Oc1c([H])c([H])c([H])c([H])c1-c1nnc(N([H])[H])c(N2C([H])([H])C([H])([H])N(C(c3c([H])c(N4C([H])([H])C([H])([H])C([H])(Oc5c([H])c(-c6sc([H])nc6C([H])([H])[H])c([H])c([H])c5C([H])([H])N([H])C(=O)C5([H])N(C(=O)C([H])(N([H])C(=O)C6(F)C([H])([H])C6([H])[H])C(C([H])([H])[H])(C([H])([H])[H])C([H])([H])[H])C([H])([H])C([H])(O[H])C5([H])[H])C4([H])[H])nc([H])c3C([H])([H])[H])=[N+]([H])[H])C([H])([H])C2([H])[H])c1[H]

>  <smiles>  (45) 
[H]Oc1c([H])c([H])c([H])c([H])c1-c1nnc(N([H])[H])c(N2C([H])([H])C([H])([H])N(C(c3c([H])c(N4C([H])([H])C([H])([H])C([H])(Oc5c([H])c(-c6sc([H])nc6C([H])([H])[H])c([H])c([H])c5C([H])([H])N([H])C(=O)C5([H])N(C(=O)C([H])(N([H])C(=O)C6(F)C([H])([H])C6([H])[H])C(C([H])([H])[H])(C([H])([H])[H])C([H])([H])[H])C([H])([H])C([H])(O[H])C5([H])[H])C4([H])[H])nc([H])c3C([H])([H])[H])=[N+]([H])[H])C([H])([H])C2([H])[H])c1[H]

$$$$
45:0:0
     RDKit          3D

 78 86  0  0  1  0  0  0  0  0999 V2000
  -37.3950   13.4950  -23.7070 C   0  0  0  0  0  0  0  0  0  0  0  0
  -36.6840   13.4440  -22.4780 C   0  0  0  0  0  3  0  0  0  0  0  0
  -35.4190   12.8250  -22.3870 C   0  0  0  0  0  0  0  0  0  0  0  0
  -35.5190   12.3560  -24.7830 C   0  0  0  0  0  3  0  0  0  0  0  0
  -36.8010   12.9470  -24.8670 C   0  0  0  0  0  0  0  0  0  0  0  0
  -34.8370   12.2990  -23.5580 C   0  0  0  0  0  3  0  0  0  0  0  0
  -35.2190   12.2300  -19.8860 C   0  0  0  0  0  0  0  0  0  0  0  0
  -33.0560   12.6130  -19.3180 C   0  0  0  0  0  3  0  0  0  0  0  0
  -34.7370   12.6850  -21.0990 C   0  0  0  0  0  0  0  0  0  0  0  0
  -34.2460   12.1940  -18.8830 N   0  0  0  0  0  0  0  0  0  0  0  0
  -33.0420   13.1040  -20.9990 S   0  0  0  0  0  0  0  0  0  0  0  0
  -36.6010   11.7600  -19.5420 C   0  0  0  0  0  1  0  0  0  0  0  0
  -37.5690   12.9560  -26.1900 C   0  0  0  0  0  2  0  0  0  0  0  0
  -36.1840   13.7050  -28.1060 C   0  0  0  0  0  0  0  0  0  0  0  0
  -36.4490   14.9010  -27.9560 O   0  0  0  0  0  0  0  0  0  0  0  0
  -36.7260   12.7370  -27.3600 N   0  0  0  0  0  0  0  0  0  0  0  0
  -36.4680   11.7810  -27.5640 H   0  0  0  0  0  0  0  0  0  0  0  0
  -36.1130   14.4230  -31.1300 C   0  0  0  0  0  0  0  0  0  0  0  0
  -35.1410   13.2560  -29.1420 C   0  0  0  0  0  3  0  0  0  0  0  0
  -33.6580   14.4760  -30.6100 C   0  0  0  0  0  2  0  0  0  0  0  0
  -35.0560   14.1200  -30.3340 N   0  0  0  0  0  0  0  0  0  0  0  0
  -37.2390   13.9540  -30.9210 O   0  0  0  0  0  0  0  0  0  0  0  0
  -33.7420   13.2970  -28.5030 C   0  0  0  0  0  2  0  0  0  0  0  0
  -32.8090   13.6550  -29.6410 C   0  0  0  0  0  3  0  0  0  0  0  0
  -32.3670   12.4840  -30.3110 O   0  0  0  0  0  0  0  0  0  0  0  0
  -33.1300   12.0120  -30.6300 H   0  0  0  0  0  0  0  0  0  0  0  0
  -35.9250   15.3430  -32.3640 C   0  0  0  0  0  3  0  0  0  0  0  0
  -36.6840   14.7430  -33.4750 N   0  0  0  0  0  0  0  0  0  0  0  0
  -36.1750   14.2130  -34.5950 C   0  0  0  0  0  0  0  0  0  0  0  0
  -34.9680   14.2470  -34.8480 O   0  0  0  0  0  0  0  0  0  0  0  0
  -37.6760   14.6140  -33.3310 H   0  0  0  0  0  0  0  0  0  0  0  0
  -37.1730   13.5730  -35.5230 C   0  0  1  0  0  0  0  0  0  0  0  0
  -38.4330   13.4120  -34.9680 F   0  0  0  0  0  0  0  0  0  0  0  0
  -37.1110   13.8770  -37.0020 C   0  0  0  0  0  2  0  0  0  0  0  0
  -36.7190   12.5070  -36.4960 C   0  0  0  0  0  2  0  0  0  0  0  0
  -35.7100   17.4420  -30.8720 C   0  0  0  0  0  1  0  0  0  0  0  0
  -35.9410   17.6890  -33.3310 C   0  0  0  0  0  1  0  0  0  0  0  0
  -37.9080   16.9700  -31.9610 C   0  0  0  0  0  1  0  0  0  0  0  0
  -36.3800   16.8300  -32.1250 C   0  0  1  0  0  0  0  0  0  0  0  0
  -38.6620   14.0250  -23.8400 O   0  0  0  0  0  0  0  0  0  0  0  0
  -38.5470   19.7740  -25.5170 C   0  0  0  0  0  3  0  0  0  0  0  0
  -39.8950   17.7600  -25.5280 C   0  0  0  0  0  3  0  0  0  0  0  0
  -38.4790   19.6650  -24.1240 C   0  0  0  0  0  3  0  0  0  0  0  0
  -39.2770   18.8110  -26.2320 C   0  0  0  0  0  0  0  0  0  0  0  0
  -39.7190   17.6970  -24.1270 C   0  0  0  0  0  0  0  0  0  0  0  0
  -40.8710   14.3940  -22.9960 C   0  0  0  0  0  2  0  0  0  0  0  0
  -41.0980   15.6270  -23.8630 C   0  0  0  0  0  2  0  0  0  0  0  0
  -39.1550   15.9730  -22.5080 C   0  0  0  0  0  2  0  0  0  0  0  0
  -39.3790   14.4690  -22.6860 C   0  0  0  0  0  3  0  0  0  0  0  0
  -39.0420   18.6450  -23.4470 N   0  0  0  0  0  0  0  0  0  0  0  0
  -40.1730   16.6270  -23.3370 N   0  0  0  0  0  0  0  0  0  0  0  0
  -40.2670   19.1550  -28.5040 N   0  0  0  0  0  0  0  0  0  0  0  0
  -40.0270   19.4240  -29.9420 C   0  0  0  0  0  2  0  0  0  0  0  0
  -41.3020   19.4210  -30.8120 C   0  0  0  0  0  2  0  0  0  0  0  0
  -42.3420   18.5860  -30.2230 N   0  0  0  0  0  0  0  0  0  0  0  0
  -42.7560   18.9120  -28.8580 C   0  0  0  0  0  2  0  0  0  0  0  0
  -41.6110   19.5050  -27.9960 C   0  0  0  0  0  2  0  0  0  0  0  0
  -39.2170   18.8570  -27.6920 C   0  0  0  0  0  3  0  0  0  0  0  0
  -37.9990   18.6200  -28.2070 N   0  0  0  0  0  0  0  0  0  0  0  0
  -37.2540   18.3790  -27.5720 H   0  0  0  0  0  0  0  0  0  0  0  0
  -37.8170   18.6090  -29.1940 H   0  0  0  0  0  0  0  0  0  0  0  0
  -43.2800   18.0140  -31.1150 C   0  0  0  0  0  0  0  0  0  0  0  0
  -44.5830   18.5240  -31.3050 C   0  0  0  0  0  3  0  0  0  0  0  0
  -45.4600   17.8710  -32.2120 C   0  0  0  0  0  0  0  0  0  0  0  0
  -45.0280   16.7650  -32.8820 N   0  0  0  0  0  0  0  0  0  0  0  0
  -43.8040   16.2590  -32.7090 N   0  0  0  0  0  0  0  0  0  0  0  0
  -42.9480   16.8590  -31.8580 C   0  0  0  0  0  0  0  0  0  0  0  0
  -41.7140   16.2510  -31.7000 N   0  0  0  0  0  0  0  0  0  0  0  0
  -41.2460   16.5480  -30.8550 H   0  0  0  0  0  0  0  0  0  0  0  0
  -41.6860   15.2570  -31.8660 H   0  0  0  0  0  0  0  0  0  0  0  0
  -46.8720   18.3170  -32.4840 C   0  0  0  0  0  0  0  0  0  0  0  0
  -47.7910   17.6260  -33.3410 C   0  0  0  0  0  0  0  0  0  0  0  0
  -49.1080   18.0920  -33.5300 C   0  0  0  0  0  3  0  0  0  0  0  0
  -49.5570   19.2530  -32.8840 C   0  0  0  0  0  3  0  0  0  0  0  0
  -48.6800   19.9560  -32.0480 C   0  0  0  0  0  3  0  0  0  0  0  0
  -47.3640   19.4930  -31.8590 C   0  0  0  0  0  3  0  0  0  0  0  0
  -47.4670   16.4850  -34.0220 O   0  0  0  0  0  0  0  0  0  0  0  0
  -46.5530   16.2480  -33.8560 H   0  0  0  0  0  0  0  0  0  0  0  0
  1  2  1  0
  2  3  2  0
  3  9  1  0
  4  6  2  0
  5  4  1  0
  5  1  2  0
  6  3  1  0
  7 12  1  0
  7 10  1  0
  8 10  2  0
  9 11  1  0
  9  7  2  0
 11  8  1  0
 13  5  1  0
 14 15  2  0
 14 16  1  0
 16 13  1  0
 17 16  1  0
 18 22  2  0
 18 21  1  0
 19 23  1  0
 19 14  1  0
 20 21  1  0
 20 24  1  0
 21 19  1  0
 24 25  1  0
 24 23  1  0
 26 25  1  0
 27 39  1  0
 27 18  1  0
 28 31  1  0
 28 27  1  0
 29 28  1  0
 30 29  2  0
 32 33  1  1
 32 29  1  0
 34 35  1  0
 34 32  1  0
 35 32  1  0
 39 37  1  6
 39 38  1  0
 39 36  1  0
 40  1  1  0
 41 43  1  0
 42 45  2  0
 43 50  2  0
 44 42  1  0
 44 41  2  0
 45 50  1  0
 45 51  1  0
 46 49  1  0
 47 51  1  0
 47 46  1  0
 49 40  1  0
 49 48  1  0
 51 48  1  0
 52 57  1  0
 52 58  1  0
 53 52  1  0
 54 55  1  0
 54 53  1  0
 55 56  1  0
 56 57  1  0
 58 59  1  0
 58 44  1  0
 59 60  1  0
 61 59  1  0
 62 55  1  0
 63 62  1  0
 64 63  2  0
 65 66  2  0
 65 64  1  0
 66 67  1  0
 67 68  1  0
 67 62  2  0
 68 69  1  0
 70 68  1  0
 71 64  1  0
 71 76  1  0
 72 71  2  0
 73 72  1  0
 73 74  2  0
 74 75  1  0
 75 76  2  0
 77 78  1  0
 77 72  1  0
M  ISO  4  40 101  49 101  52 100  58 100
M  END
>  <TORSDO>  (46) 
F 15

>  <SCORE>  (46) 
-15.032

>  <name>  (46) 
45

>  <ligand_id>  (46) 
45

>  <original_smiles>  (46) 
[H]Oc1c([H])c([H])c([H])c([H])c1-c1nnc(N([H])[H])c(N2C([H])([H])C([H])([H])N(C(c3c([H])c([H])nc(N4C([H])([H])C([H])([H])C([H])(Oc5c([H])c(-c6sc([H])nc6C([H])([H])[H])c([H])c([H])c5C([H])([H])N([H])C(=O)C5([H])N(C(=O)C([H])(N([H])C(=O)C6(F)C([H])([H])C6([H])[H])C(C([H])([H])[H])(C([H])([H])[H])C([H])([H])[H])C([H])([H])C([H])(O[H])C5([H])[H])C4([H])[H])c3[H])=[N+]([H])[H])C([H])([H])C2([H])[H])c1[H]

>  <smiles>  (46) 
[H]Oc1c([H])c([H])c([H])c([H])c1-c1nnc(N([H])[H])c(N2C([H])([H])C([H])([H])N(C(c3c([H])c([H])nc(N4C([H])([H])C([H])([H])C([H])(Oc5c([H])c(-c6sc([H])nc6C([H])([H])[H])c([H])c([H])c5C([H])([H])N([H])C(=O)C5([H])N(C(=O)C([H])(N([H])C(=O)C6(F)C([H])([H])C6([H])[H])C(C([H])([H])[H])(C([H])([H])[H])C([H])([H])[H])C([H])([H])C([H])(O[H])C5([H])[H])C4([H])[H])c3[H])=[N+]([H])[H])C([H])([H])C2([H])[H])c1[H]

$$$$
46:0:0
     RDKit          3D

 75 83  0  0  1  0  0  0  0  0999 V2000
  -37.3700   13.4920  -23.7280 C   0  0  0  0  0  0  0  0  0  0  0  0
  -36.6930   13.4200  -22.4880 C   0  0  0  0  0  3  0  0  0  0  0  0
  -35.4000   12.8570  -22.3990 C   0  0  0  0  0  0  0  0  0  0  0  0
  -35.4640   12.4200  -24.8070 C   0  0  0  0  0  3  0  0  0  0  0  0
  -36.7580   12.9780  -24.8920 C   0  0  0  0  0  0  0  0  0  0  0  0
  -34.7920   12.3700  -23.5750 C   0  0  0  0  0  3  0  0  0  0  0  0
  -35.1640   12.2440  -19.9080 C   0  0  0  0  0  0  0  0  0  0  0  0
  -33.0150   12.6880  -19.3460 C   0  0  0  0  0  3  0  0  0  0  0  0
  -34.7080   12.7300  -21.1170 C   0  0  0  0  0  0  0  0  0  0  0  0
  -34.1870   12.2230  -18.9090 N   0  0  0  0  0  0  0  0  0  0  0  0
  -33.0270   13.2080  -21.0200 S   0  0  0  0  0  0  0  0  0  0  0  0
  -36.5250   11.7250  -19.5680 C   0  0  0  0  0  1  0  0  0  0  0  0
  -37.5300   12.9870  -26.2110 C   0  0  0  0  0  2  0  0  0  0  0  0
  -36.1480   13.7090  -28.1300 C   0  0  0  0  0  0  0  0  0  0  0  0
  -36.4030   14.9050  -27.9870 O   0  0  0  0  0  0  0  0  0  0  0  0
  -36.6940   12.7490  -27.3820 N   0  0  0  0  0  0  0  0  0  0  0  0
  -36.4380   11.7900  -27.5720 H   0  0  0  0  0  0  0  0  0  0  0  0
  -36.0730   14.4460  -31.1460 C   0  0  0  0  0  0  0  0  0  0  0  0
  -35.1070   13.2570  -29.1650 C   0  0  0  0  0  3  0  0  0  0  0  0
  -33.6160   14.4740  -30.6260 C   0  0  0  0  0  2  0  0  0  0  0  0
  -35.0160   14.1300  -30.3530 N   0  0  0  0  0  0  0  0  0  0  0  0
  -37.2020   13.9900  -30.9340 O   0  0  0  0  0  0  0  0  0  0  0  0
  -33.7100   13.2920  -28.5210 C   0  0  0  0  0  2  0  0  0  0  0  0
  -32.7750   13.6440  -29.6590 C   0  0  0  0  0  3  0  0  0  0  0  0
  -32.3520   12.4670  -30.3290 O   0  0  0  0  0  0  0  0  0  0  0  0
  -33.1250   12.0090  -30.6470 H   0  0  0  0  0  0  0  0  0  0  0  0
  -35.8790   15.3630  -32.3810 C   0  0  0  0  0  3  0  0  0  0  0  0
  -36.6280   14.7590  -33.4960 N   0  0  0  0  0  0  0  0  0  0  0  0
  -36.1100   14.2190  -34.6080 C   0  0  0  0  0  0  0  0  0  0  0  0
  -34.9000   14.2440  -34.8470 O   0  0  0  0  0  0  0  0  0  0  0  0
  -37.6230   14.6400  -33.3610 H   0  0  0  0  0  0  0  0  0  0  0  0
  -37.1010   13.5770  -35.5430 C   0  0  1  0  0  0  0  0  0  0  0  0
  -38.3700   13.4400  -35.0050 F   0  0  0  0  0  0  0  0  0  0  0  0
  -37.0120   13.8550  -37.0250 C   0  0  0  0  0  2  0  0  0  0  0  0
  -36.6440   12.4890  -36.4910 C   0  0  0  0  0  2  0  0  0  0  0  0
  -35.6890   17.4610  -30.8830 C   0  0  0  0  0  1  0  0  0  0  0  0
  -35.8920   17.7080  -33.3450 C   0  0  0  0  0  1  0  0  0  0  0  0
  -37.8740   16.9850  -32.0000 C   0  0  0  0  0  1  0  0  0  0  0  0
  -36.3420   16.8480  -32.1460 C   0  0  1  0  0  0  0  0  0  0  0  0
  -38.6120   14.0570  -23.8810 O   0  0  0  0  0  0  0  0  0  0  0  0
  -39.5400   13.9830  -22.8130 C   0  0  0  0  0  2  0  0  0  0  0  0
  -40.3660   19.2990  -28.1940 N   0  0  0  0  0  0  0  0  0  0  0  0
  -39.9930   19.6040  -29.5840 C   0  0  0  0  0  2  0  0  0  0  0  0
  -41.2080   19.5390  -30.5600 C   0  0  0  0  0  2  0  0  0  0  0  0
  -42.2790   18.6780  -30.0430 N   0  0  0  0  0  0  0  0  0  0  0  0
  -42.7630   18.9380  -28.6860 C   0  0  0  0  0  2  0  0  0  0  0  0
  -41.7250   19.7290  -27.8580 C   0  0  0  0  0  2  0  0  0  0  0  0
  -38.0140   17.2050  -26.7340 C   0  0  0  0  0  2  0  0  0  0  0  0
  -39.9910   16.7380  -25.9010 C   0  0  0  0  0  0  0  0  0  0  0  0
  -39.7940   18.2620  -27.4740 C   0  0  0  0  0  0  0  0  0  0  0  0
  -41.4150   15.7290  -22.6860 C   0  0  0  0  0  2  0  0  0  0  0  0
  -40.8890   16.8050  -23.6380 C   0  0  0  0  0  2  0  0  0  0  0  0
  -41.0340   14.7390  -24.8230 C   0  0  0  0  0  2  0  0  0  0  0  0
  -40.9430   14.4130  -23.3150 C   0  0  0  0  0  3  0  0  0  0  0  0
  -38.6990   16.4930  -25.8450 N   0  0  0  0  0  0  0  0  0  0  0  0
  -38.4850   18.1170  -27.5780 N   0  0  0  0  0  0  0  0  0  0  0  0
  -40.6060   17.6080  -26.6610 N   0  0  0  0  0  2  0  0  0  0  0  0
  -40.8100   16.1740  -24.9450 N   0  0  0  0  0  0  0  0  0  0  0  0
  -43.1430   18.0590  -30.9770 C   0  0  0  0  0  0  0  0  0  0  0  0
  -44.4650   18.4940  -31.2070 C   0  0  0  0  0  3  0  0  0  0  0  0
  -45.2720   17.7930  -32.1450 C   0  0  0  0  0  0  0  0  0  0  0  0
  -44.7570   16.7130  -32.7960 N   0  0  0  0  0  0  0  0  0  0  0  0
  -43.5120   16.2800  -32.5840 N   0  0  0  0  0  0  0  0  0  0  0  0
  -42.7190   16.9270  -31.7070 C   0  0  0  0  0  0  0  0  0  0  0  0
  -41.4570   16.3960  -31.5090 N   0  0  0  0  0  0  0  0  0  0  0  0
  -41.0180   16.7810  -30.6840 H   0  0  0  0  0  0  0  0  0  0  0  0
  -41.3850   15.3940  -31.5960 H   0  0  0  0  0  0  0  0  0  0  0  0
  -46.6930   18.1610  -32.4660 C   0  0  0  0  0  0  0  0  0  0  0  0
  -47.5550   17.4080  -33.3290 C   0  0  0  0  0  0  0  0  0  0  0  0
  -48.8850   17.8090  -33.5700 C   0  0  0  0  0  3  0  0  0  0  0  0
  -49.4060   18.9630  -32.9660 C   0  0  0  0  0  3  0  0  0  0  0  0
  -48.5870   19.7260  -32.1230 C   0  0  0  0  0  3  0  0  0  0  0  0
  -47.2600   19.3280  -31.8840 C   0  0  0  0  0  3  0  0  0  0  0  0
  -47.1610   16.2660  -33.9710 O   0  0  0  0  0  0  0  0  0  0  0  0
  -46.2430   16.0690  -33.7780 H   0  0  0  0  0  0  0  0  0  0  0  0
  1  2  1  0
  2  3  2  0
  3  9  1  0
  4  6  2  0
  5  4  1  0
  5  1  2  0
  6  3  1  0
  7 12  1  0
  7 10  1  0
  8 10  2  0
  9 11  1  0
  9  7  2  0
 11  8  1  0
 13  5  1  0
 14 15  2  0
 14 16  1  0
 16 13  1  0
 17 16  1  0
 18 22  2  0
 18 21  1  0
 19 23  1  0
 19 14  1  0
 20 21  1  0
 20 24  1  0
 21 19  1  0
 24 25  1  0
 24 23  1  0
 26 25  1  0
 27 39  1  0
 27 18  1  0
 28 31  1  0
 28 27  1  0
 29 28  1  0
 30 29  2  0
 32 33  1  1
 32 29  1  0
 34 35  1  0
 34 32  1  0
 35 32  1  0
 39 37  1  6
 39 38  1  0
 39 36  1  0
 40  1  1  0
 40 41  1  0
 42 47  1  0
 42 50  1  0
 43 42  1  0
 44 45  1  0
 44 43  1  0
 45 46  1  0
 46 47  1  0
 48 55  1  0
 49 55  2  0
 49 58  1  0
 50 57  1  0
 52 51  1  0
 53 54  1  0
 54 41  1  0
 54 51  1  0
 56 50  2  0
 56 48  1  0
 57 49  1  0
 58 53  1  0
 58 52  1  0
 59 45  1  0
 60 59  1  0
 61 60  2  0
 62 63  2  0
 62 61  1  0
 63 64  1  0
 64 65  1  0
 64 59  2  0
 65 66  1  0
 67 65  1  0
 68 61  1  0
 68 73  1  0
 69 68  2  0
 70 69  1  0
 70 71  2  0
 71 72  1  0
 72 73  2  0
 74 75  1  0
 74 69  1  0
M  ISO  4  40 101  41 101  42 100  50 100
M  END
>  <TORSDO>  (47) 
F 15

>  <SCORE>  (47) 
-14.927

>  <name>  (47) 
46

>  <ligand_id>  (47) 
46

>  <original_smiles>  (47) 
[H]Oc1c([H])c([H])c([H])c([H])c1-c1nnc(N([H])[H])c(N2C([H])([H])C([H])([H])N(c3nc([H])nc(N4C([H])([H])C([H])([H])C([H])(C([H])([H])Oc5c([H])c(-c6sc([H])nc6C([H])([H])[H])c([H])c([H])c5C([H])([H])N([H])C(=O)C5([H])N(C(=O)C([H])(N([H])C(=O)C6(F)C([H])([H])C6([H])[H])C(C([H])([H])[H])(C([H])([H])[H])C([H])([H])[H])C([H])([H])C([H])(O[H])C5([H])[H])C4([H])[H])n3)C([H])([H])C2([H])[H])c1[H]

>  <smiles>  (47) 
[H]Oc1c([H])c([H])c([H])c([H])c1-c1nnc(N([H])[H])c(N2C([H])([H])C([H])([H])N(c3nc([H])nc(N4C([H])([H])C([H])([H])C([H])(C([H])([H])Oc5c([H])c(-c6sc([H])nc6C([H])([H])[H])c([H])c([H])c5C([H])([H])N([H])C(=O)C5([H])N(C(=O)C([H])(N([H])C(=O)C6(F)C([H])([H])C6([H])[H])C(C([H])([H])[H])(C([H])([H])[H])C([H])([H])[H])C([H])([H])C([H])(O[H])C5([H])[H])C4([H])[H])n3)C([H])([H])C2([H])[H])c1[H]

$$$$
47:0:0
     RDKit          3D

 74 82  0  0  1  0  0  0  0  0999 V2000
  -37.3380   13.5510  -23.7650 C   0  0  0  0  0  0  0  0  0  0  0  0
  -36.6240   13.5120  -22.5370 C   0  0  0  0  0  3  0  0  0  0  0  0
  -35.3790   12.8560  -22.4200 C   0  0  0  0  0  0  0  0  0  0  0  0
  -35.4790   12.3230  -24.7990 C   0  0  0  0  0  3  0  0  0  0  0  0
  -36.7510   12.9410  -24.8990 C   0  0  0  0  0  0  0  0  0  0  0  0
  -34.8010   12.2820  -23.5700 C   0  0  0  0  0  3  0  0  0  0  0  0
  -35.1780   12.2720  -19.9130 C   0  0  0  0  0  0  0  0  0  0  0  0
  -33.0220   12.6790  -19.3490 C   0  0  0  0  0  3  0  0  0  0  0  0
  -34.7030   12.7340  -21.1270 C   0  0  0  0  0  0  0  0  0  0  0  0
  -34.2080   12.2460  -18.9110 N   0  0  0  0  0  0  0  0  0  0  0  0
  -33.0120   13.1740  -21.0270 S   0  0  0  0  0  0  0  0  0  0  0  0
  -36.5470   11.7690  -19.5780 C   0  0  0  0  0  1  0  0  0  0  0  0
  -37.5180   12.9380  -26.2200 C   0  0  0  0  0  2  0  0  0  0  0  0
  -36.1710   13.6800  -28.1460 C   0  0  0  0  0  0  0  0  0  0  0  0
  -36.4330   14.8760  -27.9910 O   0  0  0  0  0  0  0  0  0  0  0  0
  -36.6920   12.7090  -27.3960 N   0  0  0  0  0  0  0  0  0  0  0  0
  -36.4490   11.7500  -27.6130 H   0  0  0  0  0  0  0  0  0  0  0  0
  -36.0990   14.4030  -31.1630 C   0  0  0  0  0  0  0  0  0  0  0  0
  -35.1290   13.2350  -29.1790 C   0  0  0  0  0  3  0  0  0  0  0  0
  -33.6460   14.4600  -30.6310 C   0  0  0  0  0  2  0  0  0  0  0  0
  -35.0440   14.1030  -30.3640 N   0  0  0  0  0  0  0  0  0  0  0  0
  -37.2240   13.9310  -30.9560 O   0  0  0  0  0  0  0  0  0  0  0  0
  -33.7460   13.2980  -28.5180 C   0  0  0  0  0  2  0  0  0  0  0  0
  -32.8010   13.6520  -29.6470 C   0  0  0  0  0  3  0  0  0  0  0  0
  -32.3410   12.4810  -30.3080 O   0  0  0  0  0  0  0  0  0  0  0  0
  -33.0940   12.0240  -30.6710 H   0  0  0  0  0  0  0  0  0  0  0  0
  -35.9110   15.3270  -32.3960 C   0  0  0  0  0  3  0  0  0  0  0  0
  -36.6860   14.7360  -33.5000 N   0  0  0  0  0  0  0  0  0  0  0  0
  -36.1910   14.2030  -34.6260 C   0  0  0  0  0  0  0  0  0  0  0  0
  -34.9860   14.2270  -34.8890 O   0  0  0  0  0  0  0  0  0  0  0  0
  -37.6770   14.6060  -33.3420 H   0  0  0  0  0  0  0  0  0  0  0  0
  -37.2010   13.5670  -35.5440 C   0  0  1  0  0  0  0  0  0  0  0  0
  -38.4580   13.4240  -34.9780 F   0  0  0  0  0  0  0  0  0  0  0  0
  -37.1450   13.8590  -37.0240 C   0  0  0  0  0  2  0  0  0  0  0  0
  -36.7650   12.4890  -36.5110 C   0  0  0  0  0  2  0  0  0  0  0  0
  -35.6860   17.4090  -30.8850 C   0  0  0  0  0  1  0  0  0  0  0  0
  -35.8960   17.6780  -33.3480 C   0  0  0  0  0  1  0  0  0  0  0  0
  -37.8800   16.9790  -31.9940 C   0  0  0  0  0  1  0  0  0  0  0  0
  -36.3520   16.8170  -32.1510 C   0  0  1  0  0  0  0  0  0  0  0  0
  -38.5840   14.1390  -23.9440 O   0  0  0  0  0  0  0  0  0  0  0  0
  -40.7940   14.6170  -23.0640 C   0  0  0  0  0  2  0  0  0  0  0  0
  -41.3160   15.9960  -23.5260 C   0  0  0  0  0  2  0  0  0  0  0  0
  -39.0590   16.2870  -22.8050 C   0  0  0  0  0  2  0  0  0  0  0  0
  -39.2730   14.7640  -22.8620 C   0  0  0  0  0  3  0  0  0  0  0  0
  -40.1300   16.8390  -23.6280 N   0  0  0  0  0  0  0  0  0  0  0  0
  -40.2630   19.1120  -28.3120 N   0  0  0  0  0  0  0  0  0  0  0  0
  -39.8490   19.1550  -29.7180 C   0  0  0  0  0  2  0  0  0  0  0  0
  -41.0470   19.3770  -30.6910 C   0  0  0  0  0  2  0  0  0  0  0  0
  -42.2690   18.6920  -30.2450 N   0  0  0  0  0  0  0  0  0  0  0  0
  -42.6460   18.7180  -28.8380 C   0  0  0  0  0  2  0  0  0  0  0  0
  -41.6290   19.5260  -28.0100 C   0  0  0  0  0  2  0  0  0  0  0  0
  -39.3610   18.6500  -25.0260 C   0  0  0  0  0  3  0  0  0  0  0  0
  -39.7550   17.3050  -24.8960 C   0  0  0  0  0  0  0  0  0  0  0  0
  -39.6300   18.4390  -27.2860 C   0  0  0  0  0  0  0  0  0  0  0  0
  -39.3240   19.2270  -26.2480 N   0  0  0  0  0  0  0  0  0  0  0  0
  -39.9350   16.5390  -26.0060 N   0  0  0  0  0  0  0  0  0  0  0  0
  -39.8730   17.1170  -27.2220 N   0  0  0  0  0  0  0  0  0  0  0  0
  -43.1680   18.0600  -31.1370 C   0  0  0  0  0  0  0  0  0  0  0  0
  -44.4720   18.5520  -31.3250 C   0  0  0  0  0  3  0  0  0  0  0  0
  -45.3580   17.8590  -32.2020 C   0  0  0  0  0  0  0  0  0  0  0  0
  -44.9190   16.7380  -32.8420 N   0  0  0  0  0  0  0  0  0  0  0  0
  -43.6910   16.2450  -32.6600 N   0  0  0  0  0  0  0  0  0  0  0  0
  -42.8310   16.8730  -31.8230 C   0  0  0  0  0  0  0  0  0  0  0  0
  -41.6010   16.2780  -31.6390 N   0  0  0  0  0  0  0  0  0  0  0  0
  -40.9400   16.7190  -31.0120 H   0  0  0  0  0  0  0  0  0  0  0  0
  -41.3160   15.4400  -32.1250 H   0  0  0  0  0  0  0  0  0  0  0  0
  -46.7700   18.2990  -32.4700 C   0  0  0  0  0  0  0  0  0  0  0  0
  -47.6870   17.6180  -33.3420 C   0  0  0  0  0  0  0  0  0  0  0  0
  -49.0010   18.0890  -33.5340 C   0  0  0  0  0  3  0  0  0  0  0  0
  -49.4580   19.2420  -32.8780 C   0  0  0  0  0  3  0  0  0  0  0  0
  -48.5840   19.9330  -32.0260 C   0  0  0  0  0  3  0  0  0  0  0  0
  -47.2710   19.4650  -31.8320 C   0  0  0  0  0  3  0  0  0  0  0  0
  -47.3590   16.4860  -34.0320 O   0  0  0  0  0  0  0  0  0  0  0  0
  -46.4480   16.2410  -33.8720 H   0  0  0  0  0  0  0  0  0  0  0  0
  1  2  1  0
  2  3  2  0
  3  9  1  0
  4  6  2  0
  5  4  1  0
  5  1  2  0
  6  3  1  0
  7 12  1  0
  7 10  1  0
  8 10  2  0
  9 11  1  0
  9  7  2  0
 11  8  1  0
 13  5  1  0
 14 15  2  0
 14 16  1  0
 16 13  1  0
 17 16  1  0
 18 22  2  0
 18 21  1  0
 19 23  1  0
 19 14  1  0
 20 21  1  0
 20 24  1  0
 21 19  1  0
 24 25  1  0
 24 23  1  0
 26 25  1  0
 27 39  1  0
 27 18  1  0
 28 31  1  0
 28 27  1  0
 29 28  1  0
 30 29  2  0
 32 33  1  1
 32 29  1  0
 34 35  1  0
 34 32  1  0
 35 32  1  0
 39 37  1  6
 39 38  1  0
 39 36  1  0
 40  1  1  0
 41 44  1  0
 42 41  1  0
 44 40  1  0
 44 43  1  0
 45 42  1  0
 45 43  1  0
 46 51  1  0
 46 54  1  0
 47 46  1  0
 48 49  1  0
 48 47  1  0
 49 50  1  0
 50 51  1  0
 52 53  2  0
 53 45  1  0
 54 57  1  0
 54 55  2  0
 55 52  1  0
 56 53  1  0
 57 56  2  0
 58 49  1  0
 59 58  1  0
 60 59  2  0
 61 62  2  0
 61 60  1  0
 62 63  1  0
 63 64  1  0
 63 58  2  0
 64 65  1  0
 66 64  1  0
 67 60  1  0
 67 72  1  0
 68 67  2  0
 69 68  1  0
 69 70  2  0
 70 71  1  0
 71 72  2  0
 73 74  1  0
 73 68  1  0
M  ISO  4  40 101  44 101  46 100  54 100
M  END
>  <TORSDO>  (48) 
F 15

>  <SCORE>  (48) 
-14.939

>  <name>  (48) 
47

>  <ligand_id>  (48) 
47

>  <original_smiles>  (48) 
[H]Oc1c([H])c([H])c([H])c([H])c1-c1nnc(N([H])[H])c(N2C([H])([H])C([H])([H])N(c3nnc(N4C([H])([H])C([H])([H])C([H])(Oc5c([H])c(-c6sc([H])nc6C([H])([H])[H])c([H])c([H])c5C([H])([H])N([H])C(=O)C5([H])N(C(=O)C([H])(N([H])C(=O)C6(F)C([H])([H])C6([H])[H])C(C([H])([H])[H])(C([H])([H])[H])C([H])([H])[H])C([H])([H])C([H])(O[H])C5([H])[H])C4([H])[H])c([H])n3)C([H])([H])C2([H])[H])c1[H]

>  <smiles>  (48) 
[H]Oc1c([H])c([H])c([H])c([H])c1-c1nnc(N([H])[H])c(N2C([H])([H])C([H])([H])N(c3nnc(N4C([H])([H])C([H])([H])C([H])(Oc5c([H])c(-c6sc([H])nc6C([H])([H])[H])c([H])c([H])c5C([H])([H])N([H])C(=O)C5([H])N(C(=O)C([H])(N([H])C(=O)C6(F)C([H])([H])C6([H])[H])C(C([H])([H])[H])(C([H])([H])[H])C([H])([H])[H])C([H])([H])C([H])(O[H])C5([H])[H])C4([H])[H])c([H])n3)C([H])([H])C2([H])[H])c1[H]

$$$$
48:0:0
     RDKit          3D

 80 90  0  0  1  0  0  0  0  0999 V2000
  -38.6770   14.2520  -23.8220 O   0  0  0  0  0  0  0  0  0  0  0  0
  -37.0050   19.9450  -25.7170 C   0  0  0  0  0  2  0  0  0  0  0  0
  -37.4730   21.0970  -26.6320 C   0  0  0  0  0  2  0  0  0  0  0  0
  -37.7170   16.0830  -25.3420 C   0  0  0  0  0  2  0  0  0  0  0  0
  -37.1450   17.4910  -25.0850 C   0  0  0  0  0  3  0  0  0  0  0  0
  -37.4170   17.7320  -23.6270 C   0  0  0  0  0  3  0  0  0  0  0  0
  -38.7840   18.1470  -23.2090 C   0  0  0  0  0  3  0  0  0  0  0  0
  -38.3740   16.6790  -23.1050 C   0  0  0  0  0  3  0  0  0  0  0  0
  -39.2560   18.7620  -25.7760 C   0  0  0  0  0  3  0  0  0  0  0  0
  -39.7030   18.8030  -24.2510 C   0  0  0  0  0  3  0  0  0  0  0  0
  -39.8340   19.9660  -26.6170 C   0  0  0  0  0  3  0  0  0  0  0  0
  -38.6480   15.6610  -24.1880 C   0  0  0  0  0  3  0  0  0  0  0  0
  -37.7200   18.6040  -26.0070 C   0  0  1  0  0  0  0  0  0  0  0  0
  -39.0070   21.3310  -26.6130 C   0  0  2  0  0  0  0  0  0  0  0  0
  -41.1530   18.3510  -24.0000 C   0  0  0  0  0  1  0  0  0  0  0  0
  -37.4090   18.2010  -27.4740 C   0  0  0  0  0  1  0  0  0  0  0  0
  -39.3990   22.2960  -27.7610 C   0  0  0  0  0  1  0  0  0  0  0  0
  -39.2990   22.1350  -25.3140 C   0  0  0  0  0  1  0  0  0  0  0  0
  -40.5980   19.4920  -27.8190 N   0  0  0  0  0  0  0  0  0  0  0  0
  -40.1560   19.5290  -29.2380 C   0  0  0  0  0  2  0  0  0  0  0  0
  -41.3260   19.6980  -30.2710 C   0  0  0  0  0  2  0  0  0  0  0  0
  -42.4540   18.8210  -29.9400 N   0  0  0  0  0  0  0  0  0  0  0  0
  -42.8310   18.6960  -28.5400 C   0  0  0  0  0  2  0  0  0  0  0  0
  -42.0430   19.6710  -27.6500 C   0  0  0  0  0  2  0  0  0  0  0  0
  -43.2400   18.1770  -30.9200 C   0  0  0  0  0  0  0  0  0  0  0  0
  -44.5820   18.5440  -31.1400 C   0  0  0  0  0  3  0  0  0  0  0  0
  -45.3400   17.8580  -32.1280 C   0  0  0  0  0  0  0  0  0  0  0  0
  -44.7570   16.8430  -32.8280 N   0  0  0  0  0  0  0  0  0  0  0  0
  -43.4950   16.4580  -32.6100 N   0  0  0  0  0  0  0  0  0  0  0  0
  -42.7480   17.0970  -31.6860 C   0  0  0  0  0  0  0  0  0  0  0  0
  -41.4680   16.6090  -31.4880 N   0  0  0  0  0  0  0  0  0  0  0  0
  -41.0570   16.9280  -30.6200 H   0  0  0  0  0  0  0  0  0  0  0  0
  -41.3150   15.6330  -31.6960 H   0  0  0  0  0  0  0  0  0  0  0  0
  -46.7710   18.1770  -32.4550 C   0  0  0  0  0  0  0  0  0  0  0  0
  -47.5900   17.4090  -33.3500 C   0  0  0  0  0  0  0  0  0  0  0  0
  -48.9340   17.7580  -33.5940 C   0  0  0  0  0  3  0  0  0  0  0  0
  -49.5100   18.8730  -32.9690 C   0  0  0  0  0  3  0  0  0  0  0  0
  -48.7330   19.6490  -32.0990 C   0  0  0  0  0  3  0  0  0  0  0  0
  -47.3920   19.3030  -31.8490 C   0  0  0  0  0  3  0  0  0  0  0  0
  -47.1350   16.3060  -34.0160 O   0  0  0  0  0  0  0  0  0  0  0  0
  -46.2100   16.1550  -33.8160 H   0  0  0  0  0  0  0  0  0  0  0  0
  -37.4640   13.6050  -23.7350 C   0  0  0  0  0  0  0  0  0  0  0  0
  -36.7910   13.5250  -22.4950 C   0  0  0  0  0  3  0  0  0  0  0  0
  -35.5070   12.9380  -22.3980 C   0  0  0  0  0  0  0  0  0  0  0  0
  -35.5860   12.4660  -24.7950 C   0  0  0  0  0  3  0  0  0  0  0  0
  -36.8860   13.0100  -24.8850 C   0  0  0  0  0  0  0  0  0  0  0  0
  -34.9020   12.4460  -23.5720 C   0  0  0  0  0  3  0  0  0  0  0  0
  -35.2710   12.3430  -19.9000 C   0  0  0  0  0  0  0  0  0  0  0  0
  -33.1080   12.7380  -19.3550 C   0  0  0  0  0  3  0  0  0  0  0  0
  -34.8110   12.8040  -21.1170 C   0  0  0  0  0  0  0  0  0  0  0  0
  -34.2890   12.3130  -18.9060 N   0  0  0  0  0  0  0  0  0  0  0  0
  -33.1130   13.2240  -21.0390 S   0  0  0  0  0  0  0  0  0  0  0  0
  -36.6460   11.8630  -19.5490 C   0  0  0  0  0  1  0  0  0  0  0  0
  -37.6520   12.9380  -26.2120 C   0  0  0  0  0  2  0  0  0  0  0  0
  -36.2560   13.7180  -28.1410 C   0  0  0  0  0  0  0  0  0  0  0  0
  -36.5200   14.9100  -28.0350 O   0  0  0  0  0  0  0  0  0  0  0  0
  -36.7930   12.7580  -27.3790 N   0  0  0  0  0  0  0  0  0  0  0  0
  -36.5240   11.8060  -27.5860 H   0  0  0  0  0  0  0  0  0  0  0  0
  -36.1700   14.4470  -31.1530 C   0  0  0  0  0  0  0  0  0  0  0  0
  -35.2070   13.2640  -29.1630 C   0  0  0  0  0  3  0  0  0  0  0  0
  -33.7150   14.4810  -30.6210 C   0  0  0  0  0  2  0  0  0  0  0  0
  -35.1150   14.1330  -30.3530 N   0  0  0  0  0  0  0  0  0  0  0  0
  -37.3000   13.9890  -30.9480 O   0  0  0  0  0  0  0  0  0  0  0  0
  -33.8160   13.3120  -28.5090 C   0  0  0  0  0  2  0  0  0  0  0  0
  -32.8760   13.6600  -29.6440 C   0  0  0  0  0  3  0  0  0  0  0  0
  -32.4440   12.4790  -30.3030 O   0  0  0  0  0  0  0  0  0  0  0  0
  -33.2120   12.0190  -30.6270 H   0  0  0  0  0  0  0  0  0  0  0  0
  -35.9680   15.3610  -32.3920 C   0  0  0  0  0  3  0  0  0  0  0  0
  -36.7260   14.7600  -33.5010 N   0  0  0  0  0  0  0  0  0  0  0  0
  -36.2150   14.2120  -34.6120 C   0  0  0  0  0  0  0  0  0  0  0  0
  -35.0070   14.2300  -34.8570 O   0  0  0  0  0  0  0  0  0  0  0  0
  -37.7210   14.6450  -33.3600 H   0  0  0  0  0  0  0  0  0  0  0  0
  -37.2140   13.5710  -35.5400 C   0  0  1  0  0  0  0  0  0  0  0  0
  -38.4820   13.4380  -34.9960 F   0  0  0  0  0  0  0  0  0  0  0  0
  -37.1330   13.8440  -37.0240 C   0  0  0  0  0  2  0  0  0  0  0  0
  -36.7640   12.4790  -36.4880 C   0  0  0  0  0  2  0  0  0  0  0  0
  -35.7310   17.4640  -30.9190 C   0  0  0  0  0  1  0  0  0  0  0  0
  -35.9600   17.7000  -33.3750 C   0  0  0  0  0  1  0  0  0  0  0  0
  -37.9360   17.0120  -31.9990 C   0  0  0  0  0  1  0  0  0  0  0  0
  -36.4090   16.8530  -32.1660 C   0  0  1  0  0  0  0  0  0  0  0  0
  1 42  1  0
  3 14  1  0
  3  2  1  0
  4 12  1  0
  5  4  1  0
  5  6  1  0
  6  7  1  0
  6  8  1  0
  7  8  1  0
  9 10  1  0
 10 15  1  0
 10  7  1  0
 11 14  1  0
 11  9  1  0
 12  1  1  0
 12  8  1  0
 13  9  1  0
 13  2  1  0
 13  5  1  0
 14 18  1  1
 13 16  1  6
 17 14  1  0
 19 24  1  0
 19 11  1  0
 20 19  1  0
 21 22  1  0
 21 20  1  0
 22 23  1  0
 23 24  1  0
 25 22  1  0
 26 25  1  0
 27 26  2  0
 28 29  2  0
 28 27  1  0
 29 30  1  0
 30 31  1  0
 30 25  2  0
 31 32  1  0
 33 31  1  0
 34 27  1  0
 34 39  1  0
 35 34  2  0
 36 35  1  0
 36 37  2  0
 37 38  1  0
 38 39  2  0
 40 41  1  0
 40 35  1  0
 42 43  1  0
 43 44  2  0
 44 50  1  0
 45 47  2  0
 46 45  1  0
 46 42  2  0
 47 44  1  0
 48 53  1  0
 48 51  1  0
 49 51  2  0
 50 52  1  0
 50 48  2  0
 52 49  1  0
 54 46  1  0
 55 56  2  0
 55 57  1  0
 57 54  1  0
 58 57  1  0
 59 63  2  0
 59 62  1  0
 60 64  1  0
 60 55  1  0
 61 62  1  0
 61 65  1  0
 62 60  1  0
 65 64  1  0
 66 65  1  0
 67 66  1  0
 68 80  1  0
 68 59  1  0
 69 72  1  0
 69 68  1  0
 70 69  1  0
 71 70  2  0
 73 74  1  1
 73 70  1  0
 75 76  1  0
 75 73  1  0
 76 73  1  0
 80 78  1  6
 80 79  1  0
 80 77  1  0
M  ISO  4   1 101  11 100  12 101  19 100
M  END
>  <TORSDO>  (49) 
F 15

>  <SCORE>  (49) 
-15.085

>  <name>  (49) 
48

>  <ligand_id>  (49) 
48

>  <original_smiles>  (49) 
[H]Oc1c([H])c([H])c([H])c([H])c1-c1nnc(N([H])[H])c(N2C([H])([H])C([H])([H])N(C3([H])C4([H])C([H])(C([H])([H])[H])C5([H])C6([H])C([H])(Oc7c([H])c(-c8sc([H])nc8C([H])([H])[H])c([H])c([H])c7C([H])([H])N([H])C(=O)C7([H])N(C(=O)C([H])(N([H])C(=O)C8(F)C([H])([H])C8([H])[H])C(C([H])([H])[H])(C([H])([H])[H])C([H])([H])[H])C([H])([H])C([H])(O[H])C7([H])[H])C([H])([H])C([H])(C65[H])C4(C([H])([H])[H])C([H])([H])C([H])([H])C3(C([H])([H])[H])C([H])([H])[H])C([H])([H])C2([H])[H])c1[H]

>  <smiles>  (49) 
[H]Oc1c([H])c([H])c([H])c([H])c1-c1nnc(N([H])[H])c(N2C([H])([H])C([H])([H])N(C3([H])C4([H])C([H])(C([H])([H])[H])C5([H])C6([H])C([H])(Oc7c([H])c(-c8sc([H])nc8C([H])([H])[H])c([H])c([H])c7C([H])([H])N([H])C(=O)C7([H])N(C(=O)C([H])(N([H])C(=O)C8(F)C([H])([H])C8([H])[H])C(C([H])([H])[H])(C([H])([H])[H])C([H])([H])[H])C([H])([H])C([H])(O[H])C7([H])[H])C([H])([H])C([H])(C65[H])C4(C([H])([H])[H])C([H])([H])C([H])([H])C3(C([H])([H])[H])C([H])([H])[H])C([H])([H])C2([H])[H])c1[H]

$$$$
49:0:0
     RDKit          3D

 82 91  0  0  1  0  0  0  0  0999 V2000
  -37.8490   21.4930  -24.1490 C   0  0  0  0  0  2  0  0  0  0  0  0
  -39.0020   22.0750  -24.6690 C   0  0  0  0  0  3  0  0  0  0  0  0
  -40.2090   21.4680  -24.4410 C   0  0  0  0  0  0  0  0  0  0  0  0
  -39.1530   19.6950  -23.5350 C   0  0  0  0  0  0  0  0  0  0  0  0
  -40.6200   22.3060  -27.5460 C   0  0  0  0  0  0  0  0  0  0  0  0
  -39.1640   23.1460  -25.7040 C   0  0  0  0  0  2  0  0  0  0  0  0
  -41.2780   22.1400  -25.2510 C   0  0  0  0  0  2  0  0  0  0  0  0
  -38.0490   16.2020  -22.5970 C   0  0  0  0  0  2  0  0  0  0  0  0
  -39.8850   16.0520  -24.2420 C   0  0  0  0  0  2  0  0  0  0  0  0
  -37.9290   17.7050  -22.8550 C   0  0  0  0  0  2  0  0  0  0  0  0
  -39.8170   17.5760  -24.4510 C   0  0  0  0  0  2  0  0  0  0  0  0
  -38.5080   15.4890  -23.8840 C   0  0  0  0  0  3  0  0  0  0  0  0
  -37.9520   20.2790  -23.5740 N   0  0  0  0  0  0  0  0  0  0  0  0
  -40.3090   20.2480  -23.9000 N   0  0  0  0  0  0  0  0  0  0  0  0
  -39.1730   18.3100  -23.3470 N   0  0  0  0  0  0  0  0  0  0  0  0
  -40.4750   22.7990  -26.2970 N   0  0  0  0  0  0  0  0  0  0  0  0
  -41.5430   22.6670  -28.2860 O   0  0  0  0  0  0  0  0  0  0  0  0
  -40.2330   19.9080  -28.2980 N   0  0  0  0  0  0  0  0  0  0  0  0
  -39.8480   19.3340  -29.5870 C   0  0  0  0  0  2  0  0  0  0  0  0
  -41.0260   19.4950  -30.5600 C   0  0  0  0  0  2  0  0  0  0  0  0
  -42.1660   18.7360  -30.0630 N   0  0  0  0  0  0  0  0  0  0  0  0
  -42.3980   18.5660  -28.6350 C   0  0  0  0  0  2  0  0  0  0  0  0
  -41.5250   19.4630  -27.7310 C   0  0  0  0  0  2  0  0  0  0  0  0
  -39.6700   21.1170  -27.9920 C   0  0  0  0  0  0  0  0  0  0  0  0
  -38.4800   21.3660  -28.2080 O   0  0  0  0  0  0  0  0  0  0  0  0
  -42.9920   18.0400  -30.9650 C   0  0  0  0  0  0  0  0  0  0  0  0
  -44.3130   18.4660  -31.1920 C   0  0  0  0  0  3  0  0  0  0  0  0
  -45.1140   17.7610  -32.1250 C   0  0  0  0  0  0  0  0  0  0  0  0
  -44.6000   16.6740  -32.7710 N   0  0  0  0  0  0  0  0  0  0  0  0
  -43.3600   16.2340  -32.5400 N   0  0  0  0  0  0  0  0  0  0  0  0
  -42.5660   16.8890  -31.6670 C   0  0  0  0  0  0  0  0  0  0  0  0
  -41.3150   16.3390  -31.4470 N   0  0  0  0  0  0  0  0  0  0  0  0
  -40.8800   16.6590  -30.5910 H   0  0  0  0  0  0  0  0  0  0  0  0
  -41.2200   15.3510  -31.6290 H   0  0  0  0  0  0  0  0  0  0  0  0
  -46.5310   18.1430  -32.4490 C   0  0  0  0  0  0  0  0  0  0  0  0
  -47.3980   17.3960  -33.3110 C   0  0  0  0  0  0  0  0  0  0  0  0
  -48.7240   17.8110  -33.5480 C   0  0  0  0  0  3  0  0  0  0  0  0
  -49.2320   18.9760  -32.9530 C   0  0  0  0  0  3  0  0  0  0  0  0
  -48.4050   19.7340  -32.1160 C   0  0  0  0  0  3  0  0  0  0  0  0
  -47.0820   19.3230  -31.8740 C   0  0  0  0  0  3  0  0  0  0  0  0
  -47.0130   16.2490  -33.9470 O   0  0  0  0  0  0  0  0  0  0  0  0
  -46.1010   16.0400  -33.7440 H   0  0  0  0  0  0  0  0  0  0  0  0
  -38.5920   14.0670  -23.7700 O   0  0  0  0  0  0  0  0  0  0  0  0
  -37.3660   13.4500  -23.7230 C   0  0  0  0  0  0  0  0  0  0  0  0
  -36.6840   13.3470  -22.4900 C   0  0  0  0  0  3  0  0  0  0  0  0
  -35.4010   12.7690  -22.4050 C   0  0  0  0  0  0  0  0  0  0  0  0
  -35.4970   12.3290  -24.8100 C   0  0  0  0  0  3  0  0  0  0  0  0
  -36.7830   12.9110  -24.8920 C   0  0  0  0  0  0  0  0  0  0  0  0
  -34.8090   12.2740  -23.5840 C   0  0  0  0  0  3  0  0  0  0  0  0
  -35.1850   12.2080  -19.9000 C   0  0  0  0  0  0  0  0  0  0  0  0
  -33.0240   12.5960  -19.3470 C   0  0  0  0  0  3  0  0  0  0  0  0
  -34.7100   12.6470  -21.1210 C   0  0  0  0  0  0  0  0  0  0  0  0
  -34.2100   12.1820  -18.9000 N   0  0  0  0  0  0  0  0  0  0  0  0
  -33.0160   13.0710  -21.0320 S   0  0  0  0  0  0  0  0  0  0  0  0
  -36.5650   11.7470  -19.5460 C   0  0  0  0  0  1  0  0  0  0  0  0
  -37.5580   12.9200  -26.2100 C   0  0  0  0  0  2  0  0  0  0  0  0
  -36.1640   13.6890  -28.1100 C   0  0  0  0  0  0  0  0  0  0  0  0
  -36.4160   14.8850  -27.9360 O   0  0  0  0  0  0  0  0  0  0  0  0
  -36.7170   12.7150  -27.3840 N   0  0  0  0  0  0  0  0  0  0  0  0
  -36.4770   11.7600  -27.6110 H   0  0  0  0  0  0  0  0  0  0  0  0
  -36.0960   14.4340  -31.1280 C   0  0  0  0  0  0  0  0  0  0  0  0
  -35.1200   13.2480  -29.1500 C   0  0  0  0  0  3  0  0  0  0  0  0
  -33.6390   14.4790  -30.6120 C   0  0  0  0  0  2  0  0  0  0  0  0
  -35.0370   14.1230  -30.3360 N   0  0  0  0  0  0  0  0  0  0  0  0
  -37.2210   13.9610  -30.9210 O   0  0  0  0  0  0  0  0  0  0  0  0
  -33.7210   13.2890  -28.5120 C   0  0  0  0  0  2  0  0  0  0  0  0
  -32.7900   13.6510  -29.6500 C   0  0  0  0  0  3  0  0  0  0  0  0
  -32.3560   12.4830  -30.3270 O   0  0  0  0  0  0  0  0  0  0  0  0
  -33.1230   12.0170  -30.6460 H   0  0  0  0  0  0  0  0  0  0  0  0
  -35.9100   15.3650  -32.3550 C   0  0  0  0  0  3  0  0  0  0  0  0
  -36.6650   14.7720  -33.4710 N   0  0  0  0  0  0  0  0  0  0  0  0
  -36.1510   14.2210  -34.5790 C   0  0  0  0  0  0  0  0  0  0  0  0
  -34.9400   14.2270  -34.8140 O   0  0  0  0  0  0  0  0  0  0  0  0
  -37.6620   14.6670  -33.3390 H   0  0  0  0  0  0  0  0  0  0  0  0
  -37.1470   13.5910  -35.5170 C   0  0  1  0  0  0  0  0  0  0  0  0
  -38.4220   13.4770  -34.9860 F   0  0  0  0  0  0  0  0  0  0  0  0
  -37.0460   13.8610  -37.0010 C   0  0  0  0  0  2  0  0  0  0  0  0
  -36.7040   12.4910  -36.4590 C   0  0  0  0  0  2  0  0  0  0  0  0
  -35.6780   17.4610  -30.8610 C   0  0  0  0  0  1  0  0  0  0  0  0
  -35.9610   17.7130  -33.3130 C   0  0  0  0  0  1  0  0  0  0  0  0
  -37.8960   16.9800  -31.9020 C   0  0  0  0  0  1  0  0  0  0  0  0
  -36.3710   16.8480  -32.1010 C   0  0  1  0  0  0  0  0  0  0  0  0
  1 13  1  0
  2  6  1  0
  2  3  1  0
  2  1  1  0
  3 14  2  0
  4 15  1  0
  5 16  1  0
  7  3  1  0
  9 12  1  0
 10  8  1  0
 11  9  1  0
 11 15  1  0
 12 43  1  0
 12  8  1  0
 13  4  2  0
 14  4  1  0
 15 10  1  0
 16  6  1  0
 16  7  1  0
 17  5  2  0
 18 24  1  0
 18 23  1  0
 19 18  1  0
 20 21  1  0
 20 19  1  0
 21 22  1  0
 22 23  1  0
 24  5  1  0
 25 24  2  0
 26 21  1  0
 27 26  1  0
 28 27  2  0
 29 30  2  0
 29 28  1  0
 30 31  1  0
 31 32  1  0
 31 26  2  0
 32 33  1  0
 34 32  1  0
 35 28  1  0
 35 40  1  0
 36 35  2  0
 37 36  1  0
 37 38  2  0
 38 39  1  0
 39 40  2  0
 41 42  1  0
 41 36  1  0
 43 44  1  0
 44 45  1  0
 45 46  2  0
 46 52  1  0
 47 49  2  0
 48 47  1  0
 48 44  2  0
 49 46  1  0
 50 55  1  0
 50 53  1  0
 51 53  2  0
 52 54  1  0
 52 50  2  0
 54 51  1  0
 56 48  1  0
 57 58  2  0
 57 59  1  0
 59 56  1  0
 60 59  1  0
 61 65  2  0
 61 64  1  0
 62 66  1  0
 62 57  1  0
 63 64  1  0
 63 67  1  0
 64 62  1  0
 67 68  1  0
 67 66  1  0
 69 68  1  0
 70 82  1  0
 70 61  1  0
 71 74  1  0
 71 70  1  0
 72 71  1  0
 73 72  2  0
 75 76  1  1
 75 72  1  0
 77 78  1  0
 77 75  1  0
 78 75  1  0
 82 80  1  6
 82 81  1  0
 82 79  1  0
M  ISO  4  12 101  18 100  24 100  43 101
M  END
>  <TORSDO>  (50) 
F 15

>  <SCORE>  (50) 
-15.051

>  <name>  (50) 
49

>  <ligand_id>  (50) 
49

>  <original_smiles>  (50) 
[H]Oc1c([H])c([H])c([H])c([H])c1-c1nnc(N([H])[H])c(N2C([H])([H])C([H])([H])N(C(=O)C(=O)N3C([H])([H])c4nc(N5C([H])([H])C([H])([H])C([H])(Oc6c([H])c(-c7sc([H])nc7C([H])([H])[H])c([H])c([H])c6C([H])([H])N([H])C(=O)C6([H])N(C(=O)C([H])(N([H])C(=O)C7(F)C([H])([H])C7([H])[H])C(C([H])([H])[H])(C([H])([H])[H])C([H])([H])[H])C([H])([H])C([H])(O[H])C6([H])[H])C([H])([H])C5([H])[H])nc([H])c4C3([H])[H])C([H])([H])C2([H])[H])c1[H]

>  <smiles>  (50) 
[H]Oc1c([H])c([H])c([H])c([H])c1-c1nnc(N([H])[H])c(N2C([H])([H])C([H])([H])N(C(=O)C(=O)N3C([H])([H])c4nc(N5C([H])([H])C([H])([H])C([H])(Oc6c([H])c(-c7sc([H])nc7C([H])([H])[H])c([H])c([H])c6C([H])([H])N([H])C(=O)C6([H])N(C(=O)C([H])(N([H])C(=O)C7(F)C([H])([H])C7([H])[H])C(C([H])([H])[H])(C([H])([H])[H])C([H])([H])[H])C([H])([H])C([H])(O[H])C6([H])[H])C([H])([H])C5([H])[H])nc([H])c4C3([H])[H])C([H])([H])C2([H])[H])c1[H]

$$$$
50:0:0
     RDKit          3D

 75 83  0  0  1  0  0  0  0  0999 V2000
  -37.3970   13.5040  -23.7270 C   0  0  0  0  0  0  0  0  0  0  0  0
  -36.6830   13.4570  -22.5020 C   0  0  0  0  0  3  0  0  0  0  0  0
  -35.4060   12.8710  -22.4160 C   0  0  0  0  0  0  0  0  0  0  0  0
  -35.5070   12.4020  -24.8120 C   0  0  0  0  0  3  0  0  0  0  0  0
  -36.8030   12.9630  -24.8910 C   0  0  0  0  0  0  0  0  0  0  0  0
  -34.8170   12.3610  -23.5890 C   0  0  0  0  0  3  0  0  0  0  0  0
  -35.1890   12.2810  -19.9170 C   0  0  0  0  0  0  0  0  0  0  0  0
  -33.0460   12.7380  -19.3450 C   0  0  0  0  0  3  0  0  0  0  0  0
  -34.7230   12.7520  -21.1290 C   0  0  0  0  0  0  0  0  0  0  0  0
  -34.2200   12.2770  -18.9110 N   0  0  0  0  0  0  0  0  0  0  0  0
  -33.0440   13.2320  -21.0260 S   0  0  0  0  0  0  0  0  0  0  0  0
  -36.5540   11.7660  -19.5770 C   0  0  0  0  0  1  0  0  0  0  0  0
  -37.5750   12.9640  -26.2120 C   0  0  0  0  0  2  0  0  0  0  0  0
  -36.1890   13.7090  -28.1300 C   0  0  0  0  0  0  0  0  0  0  0  0
  -36.4510   14.9050  -27.9800 O   0  0  0  0  0  0  0  0  0  0  0  0
  -36.7350   12.7440  -27.3850 N   0  0  0  0  0  0  0  0  0  0  0  0
  -36.4880   11.7860  -27.5940 H   0  0  0  0  0  0  0  0  0  0  0  0
  -36.1120   14.4280  -31.1560 C   0  0  0  0  0  0  0  0  0  0  0  0
  -35.1440   13.2590  -29.1630 C   0  0  0  0  0  3  0  0  0  0  0  0
  -33.6580   14.4770  -30.6310 C   0  0  0  0  0  2  0  0  0  0  0  0
  -35.0570   14.1230  -30.3560 N   0  0  0  0  0  0  0  0  0  0  0  0
  -37.2390   13.9600  -30.9490 O   0  0  0  0  0  0  0  0  0  0  0  0
  -33.7460   13.3020  -28.5220 C   0  0  0  0  0  2  0  0  0  0  0  0
  -32.8110   13.6580  -29.6610 C   0  0  0  0  0  3  0  0  0  0  0  0
  -32.3730   12.4840  -30.3280 O   0  0  0  0  0  0  0  0  0  0  0  0
  -33.1370   12.0160  -30.6480 H   0  0  0  0  0  0  0  0  0  0  0  0
  -35.9190   15.3480  -32.3910 C   0  0  0  0  0  3  0  0  0  0  0  0
  -36.6540   14.7340  -33.5100 N   0  0  0  0  0  0  0  0  0  0  0  0
  -36.1230   14.2100  -34.6240 C   0  0  0  0  0  0  0  0  0  0  0  0
  -34.9140   14.2620  -34.8600 O   0  0  0  0  0  0  0  0  0  0  0  0
  -37.6460   14.5920  -33.3760 H   0  0  0  0  0  0  0  0  0  0  0  0
  -37.0980   13.5520  -35.5640 C   0  0  1  0  0  0  0  0  0  0  0  0
  -38.3660   13.3830  -35.0280 F   0  0  0  0  0  0  0  0  0  0  0  0
  -37.0140   13.8440  -37.0440 C   0  0  0  0  0  2  0  0  0  0  0  0
  -36.6170   12.4820  -36.5200 C   0  0  0  0  0  2  0  0  0  0  0  0
  -35.7640   17.4500  -30.8930 C   0  0  0  0  0  1  0  0  0  0  0  0
  -35.9460   17.6930  -33.3580 C   0  0  0  0  0  1  0  0  0  0  0  0
  -37.9330   16.9480  -32.0270 C   0  0  0  0  0  1  0  0  0  0  0  0
  -36.3990   16.8290  -32.1610 C   0  0  1  0  0  0  0  0  0  0  0  0
  -38.6690   14.0280  -23.8400 O   0  0  0  0  0  0  0  0  0  0  0  0
  -40.5970   15.2300  -23.0680 C   0  0  0  0  0  2  0  0  0  0  0  0
  -40.6310   16.2230  -24.2220 C   0  0  0  0  0  2  0  0  0  0  0  0
  -38.4720   16.3330  -23.1890 C   0  0  0  0  0  2  0  0  0  0  0  0
  -39.1110   14.9750  -22.8650 C   0  0  0  0  0  3  0  0  0  0  0  0
  -39.3620   16.9490  -24.1720 N   0  0  0  0  0  0  0  0  0  0  0  0
  -40.3420   19.2320  -28.3930 N   0  0  0  0  0  0  0  0  0  0  0  0
  -40.0140   19.4840  -29.7960 C   0  0  0  0  0  2  0  0  0  0  0  0
  -41.2770   19.4730  -30.7070 C   0  0  0  0  0  2  0  0  0  0  0  0
  -42.3430   18.6280  -30.1560 N   0  0  0  0  0  0  0  0  0  0  0  0
  -42.7570   18.8520  -28.7690 C   0  0  0  0  0  2  0  0  0  0  0  0
  -41.6840   19.6120  -27.9600 C   0  0  0  0  0  2  0  0  0  0  0  0
  -37.5240   17.7590  -25.6480 C   0  0  0  0  0  3  0  0  0  0  0  0
  -39.8300   18.0460  -26.2970 C   0  0  0  0  0  3  0  0  0  0  0  0
  -37.1460   18.3850  -26.8530 C   0  0  0  0  0  2  0  0  0  0  0  0
  -38.8940   17.5670  -25.3570 C   0  0  0  0  0  0  0  0  0  0  0  0
  -39.4200   18.6980  -27.4770 C   0  0  0  0  0  0  0  0  0  0  0  0
  -38.0940   18.8260  -27.7110 N   0  0  0  0  0  0  0  0  0  0  0  0
  -37.7890   19.3020  -28.5640 H   0  0  0  0  0  0  0  0  0  0  0  0
  -43.2530   18.0260  -31.0530 C   0  0  0  0  0  0  0  0  0  0  0  0
  -44.5550   18.5230  -31.2690 C   0  0  0  0  0  3  0  0  0  0  0  0
  -45.4150   17.8440  -32.1740 C   0  0  0  0  0  0  0  0  0  0  0  0
  -44.9660   16.7270  -32.8160 N   0  0  0  0  0  0  0  0  0  0  0  0
  -43.7410   16.2330  -32.6130 N   0  0  0  0  0  0  0  0  0  0  0  0
  -42.9010   16.8550  -31.7620 C   0  0  0  0  0  0  0  0  0  0  0  0
  -41.6700   16.2560  -31.5670 N   0  0  0  0  0  0  0  0  0  0  0  0
  -41.2190   16.5690  -30.7180 H   0  0  0  0  0  0  0  0  0  0  0  0
  -41.6380   15.2570  -31.7120 H   0  0  0  0  0  0  0  0  0  0  0  0
  -46.8240   18.2760  -32.4740 C   0  0  0  0  0  0  0  0  0  0  0  0
  -47.7240   17.5700  -33.3400 C   0  0  0  0  0  0  0  0  0  0  0  0
  -49.0390   18.0260  -33.5590 C   0  0  0  0  0  3  0  0  0  0  0  0
  -49.5080   19.1900  -32.9330 C   0  0  0  0  0  3  0  0  0  0  0  0
  -48.6500   19.9080  -32.0880 C   0  0  0  0  0  3  0  0  0  0  0  0
  -47.3360   19.4550  -31.8700 C   0  0  0  0  0  3  0  0  0  0  0  0
  -47.3810   16.4250  -34.0020 O   0  0  0  0  0  0  0  0  0  0  0  0
  -46.4690   16.1920  -33.8190 H   0  0  0  0  0  0  0  0  0  0  0  0
  1  2  1  0
  2  3  2  0
  3  9  1  0
  4  6  2  0
  5  4  1  0
  5  1  2  0
  6  3  1  0
  7 12  1  0
  7 10  1  0
  8 10  2  0
  9 11  1  0
  9  7  2  0
 11  8  1  0
 13  5  1  0
 14 15  2  0
 14 16  1  0
 16 13  1  0
 17 16  1  0
 18 22  2  0
 18 21  1  0
 19 23  1  0
 19 14  1  0
 20 21  1  0
 20 24  1  0
 21 19  1  0
 24 25  1  0
 24 23  1  0
 26 25  1  0
 27 39  1  0
 27 18  1  0
 28 31  1  0
 28 27  1  0
 29 28  1  0
 30 29  2  0
 32 33  1  1
 32 29  1  0
 34 35  1  0
 34 32  1  0
 35 32  1  0
 39 37  1  6
 39 38  1  0
 39 36  1  0
 40  1  1  0
 41 44  1  0
 42 45  1  0
 42 41  1  0
 43 44  1  0
 44 40  1  0
 45 43  1  0
 46 51  1  0
 46 56  1  0
 47 46  1  0
 48 49  1  0
 48 47  1  0
 49 50  1  0
 50 51  1  0
 52 55  2  0
 53 55  1  0
 54 52  1  0
 55 45  1  0
 56 53  2  0
 57 56  1  0
 57 54  1  0
 58 57  1  0
 59 49  1  0
 60 59  1  0
 61 60  2  0
 62 63  2  0
 62 61  1  0
 63 64  1  0
 64 65  1  0
 64 59  2  0
 65 66  1  0
 67 65  1  0
 68 61  1  0
 68 73  1  0
 69 68  2  0
 70 69  1  0
 70 71  2  0
 71 72  1  0
 72 73  2  0
 74 75  1  0
 74 69  1  0
M  ISO  4  40 101  44 101  46 100  56 100
M  END
>  <TORSDO>  (51) 
F 15

>  <SCORE>  (51) 
-14.922

>  <name>  (51) 
50

>  <ligand_id>  (51) 
50

>  <original_smiles>  (51) 
[H]Oc1c([H])c([H])c([H])c([H])c1-c1nnc(N([H])[H])c(N2C([H])([H])C([H])([H])N(c3c([H])c(N4C([H])([H])C([H])([H])C([H])(Oc5c([H])c(-c6sc([H])nc6C([H])([H])[H])c([H])c([H])c5C([H])([H])N([H])C(=O)C5([H])N(C(=O)C([H])(N([H])C(=O)C6(F)C([H])([H])C6([H])[H])C(C([H])([H])[H])(C([H])([H])[H])C([H])([H])[H])C([H])([H])C([H])(O[H])C5([H])[H])C4([H])[H])c([H])c([H])[n+]3[H])C([H])([H])C2([H])[H])c1[H]

>  <smiles>  (51) 
[H]Oc1c([H])c([H])c([H])c([H])c1-c1nnc(N([H])[H])c(N2C([H])([H])C([H])([H])N(c3c([H])c(N4C([H])([H])C([H])([H])C([H])(Oc5c([H])c(-c6sc([H])nc6C([H])([H])[H])c([H])c([H])c5C([H])([H])N([H])C(=O)C5([H])N(C(=O)C([H])(N([H])C(=O)C6(F)C([H])([H])C6([H])[H])C(C([H])([H])[H])(C([H])([H])[H])C([H])([H])[H])C([H])([H])C([H])(O[H])C5([H])[H])C4([H])[H])c([H])c([H])[n+]3[H])C([H])([H])C2([H])[H])c1[H]

$$$$
51:0:0
     RDKit          3D

 77 88  0  0  1  0  0  0  0  0999 V2000
  -38.3990   22.2550  -25.4520 C   0  0  0  0  0  0  0  0  0  0  0  0
  -37.2670   22.3470  -26.5410 C   0  0  0  0  0  3  0  0  0  0  0  0
  -36.4110   23.6000  -26.8380 C   0  0  0  0  0  0  0  0  0  0  0  0
  -37.6360   24.6350  -25.1520 C   0  0  0  0  0  3  0  0  0  0  0  0
  -38.4830   23.5470  -25.0940 C   0  0  0  0  0  0  0  0  0  0  0  0
  -36.6080   24.6760  -25.9920 C   0  0  0  0  0  3  0  0  0  0  0  0
  -35.0080   23.8360  -29.1410 C   0  0  0  0  0  0  0  0  0  0  0  0
  -34.0200   25.8950  -29.1560 C   0  0  0  0  0  3  0  0  0  0  0  0
  -35.3600   24.1670  -27.8310 C   0  0  0  0  0  0  0  0  0  0  0  0
  -34.2420   24.7870  -29.8530 N   0  0  0  0  0  0  0  0  0  0  0  0
  -34.6900   25.8190  -27.5410 S   0  0  0  0  0  0  0  0  0  0  0  0
  -35.3810   22.6160  -29.9090 C   0  0  0  0  0  1  0  0  0  0  0  0
  -39.5650   23.8520  -24.3360 C   0  0  0  0  0  2  0  0  0  0  0  0
  -37.8400   25.1090  -22.9310 C   0  0  0  0  0  0  0  0  0  0  0  0
  -36.7110   24.6040  -23.0560 O   0  0  0  0  0  0  0  0  0  0  0  0
  -39.0010   24.8770  -23.5220 N   0  0  0  0  0  0  0  0  0  0  0  0
  -39.7230   25.4960  -23.1860 H   0  0  0  0  0  0  0  0  0  0  0  0
  -38.5040   28.1570  -23.7080 C   0  0  0  0  0  0  0  0  0  0  0  0
  -38.2140   26.0520  -21.8990 C   0  0  2  0  0  0  0  0  0  0  0  0
  -40.1450   26.4070  -21.8790 C   0  0  0  0  0  3  0  0  0  0  0  0
  -38.9160   27.0630  -22.6650 N   0  0  0  0  0  0  0  0  0  0  0  0
  -37.9410   27.8110  -24.6820 O   0  0  0  0  0  0  0  0  0  0  0  0
  -38.9180   25.1670  -20.8340 C   0  0  0  0  0  2  0  0  0  0  0  0
  -39.9390   26.0310  -20.3930 C   0  0  0  0  0  3  0  0  0  0  0  0
  -39.4300   26.8980  -19.3600 O   0  0  0  0  0  0  0  0  0  0  0  0
  -38.6350   27.3160  -19.6690 H   0  0  0  0  0  0  0  0  0  0  0  0
  -38.2100   29.9850  -23.7450 C   0  0  0  0  0  0  0  0  0  0  0  0
  -38.7340   31.1540  -22.7190 N   0  0  0  0  0  4  0  0  0  0  0  0
  -38.4840   32.5210  -22.3660 C   0  0  0  0  0  0  0  0  0  0  0  0
  -37.9640   33.4030  -23.0720 O   0  0  0  0  0  0  0  0  0  0  0  0
  -39.2890   30.7510  -21.9770 H   0  0  0  0  0  0  0  0  0  0  0  0
  -38.8970   32.9510  -20.9890 C   0  0  1  0  0  0  0  0  0  0  0  0
  -40.2010   32.6120  -20.7060 F   0  0  0  0  0  0  0  0  0  0  0  0
  -37.9030   32.8860  -19.8360 C   0  0  0  0  0  2  0  0  0  0  0  0
  -38.3520   34.2270  -20.3640 C   0  0  0  0  0  2  0  0  0  0  0  0
  -37.0560   30.7780  -26.4470 C   0  0  0  0  0  1  0  0  0  0  0  0
  -37.2650   32.3400  -24.7550 C   0  0  0  0  0  1  0  0  0  0  0  0
  -36.0880   30.0680  -24.4640 C   0  0  0  0  0  1  0  0  0  0  0  0
  -37.3170   30.7560  -24.8700 C   0  0  1  0  0  0  0  0  0  0  0  0
  -39.5130   21.4160  -24.5700 O   0  0  0  0  0  0  0  0  0  0  0  0
  -43.6840   20.0270  -25.6280 C   0  0  0  0  0  3  0  0  0  0  0  0
  -42.5270   20.6130  -24.7050 C   0  0  0  0  0  2  0  0  0  0  0  0
  -42.4390   18.8150  -26.5230 C   0  0  0  0  0  3  0  0  0  0  0  0
  -43.6550   19.5430  -27.1360 C   0  0  0  0  0  2  0  0  0  0  0  0
  -41.0350   20.4920  -24.8330 C   0  0  0  0  0  0  0  0  0  0  0  0
  -41.3800   19.1970  -25.5040 N   0  0  0  0  0  0  0  0  0  0  0  0
  -43.7420   25.5870  -25.4770 N   0  0  0  0  0  0  0  0  0  0  0  0
  -44.8140   26.5430  -24.9880 C   0  0  0  0  0  3  0  0  0  0  0  0
  -45.7500   26.2100  -23.7090 C   0  0  0  0  0  3  0  0  0  0  0  0
  -45.1340   25.7470  -22.4550 N   0  0  0  0  0  0  0  0  0  0  0  0
  -43.6690   25.8520  -22.5050 C   0  0  0  0  0  3  0  0  0  0  0  0
  -42.9880   25.9290  -24.0370 C   0  0  0  0  0  3  0  0  0  0  0  0
  -43.3630   25.0930  -27.0060 C   0  0  0  0  0  0  0  0  0  0  0  0
  -44.0550   21.7960  -30.1740 C   0  0  0  0  0  3  0  0  0  0  0  0
  -45.4710   21.8610  -29.7090 C   0  0  0  0  0  3  0  0  0  0  0  0
  -43.4140   23.5500  -29.6420 C   0  0  0  0  0  3  0  0  0  0  0  0
  -45.2030   23.6860  -29.3560 C   0  0  0  0  0  3  0  0  0  0  0  0
  -44.4560   20.3390  -29.0850 C   0  0  0  0  0  2  0  0  0  0  0  0
  -43.9720   24.3590  -28.3920 N   0  0  0  0  0  0  0  0  0  0  0  0
  -42.1520   25.2620  -27.1660 O   0  0  0  0  0  0  0  0  0  0  0  0
  -45.9220   24.9670  -21.5040 C   0  0  0  0  0  0  0  0  0  0  0  0
  -47.3400   25.0550  -21.3030 C   0  0  0  0  0  3  0  0  0  0  0  0
  -48.0170   24.1390  -20.4160 C   0  0  0  0  0  0  0  0  0  0  0  0
  -47.3030   23.1580  -19.8020 N   0  0  0  0  0  0  0  0  0  0  0  0
  -45.9850   23.0670  -19.9410 N   0  0  0  0  0  0  0  0  0  0  0  0
  -45.3260   23.9500  -20.7180 C   0  0  0  0  0  0  0  0  0  0  0  0
  -43.9660   23.8490  -20.6490 N   0  0  0  0  0  0  0  0  0  0  0  0
  -43.5030   24.3430  -21.3990 H   0  0  0  0  0  0  0  0  0  0  0  0
  -43.6020   22.9310  -20.4440 H   0  0  0  0  0  0  0  0  0  0  0  0
  -49.4950   24.1400  -20.0790 C   0  0  0  0  0  0  0  0  0  0  0  0
  -50.1290   23.2960  -19.0980 C   0  0  0  0  0  0  0  0  0  0  0  0
  -51.5130   23.3780  -18.8360 C   0  0  0  0  0  3  0  0  0  0  0  0
  -52.3200   24.2910  -19.5280 C   0  0  0  0  0  3  0  0  0  0  0  0
  -51.7350   25.1230  -20.4930 C   0  0  0  0  0  3  0  0  0  0  0  0
  -50.3530   25.0450  -20.7570 C   0  0  0  0  0  3  0  0  0  0  0  0
  -49.4570   22.3650  -18.3540 O   0  0  0  0  0  0  0  0  0  0  0  0
  -48.5290   22.3590  -18.5920 H   0  0  0  0  0  0  0  0  0  0  0  0
  1  5  1  0
  1 40  1  0
  2  1  2  0
  3  2  1  0
  3  6  2  0
  4  5  2  0
  5 13  1  0
  6  4  1  0
  7  9  2  0
  8 11  1  0
  9 11  1  0
  9  3  1  0
 10  8  2  0
 10  7  1  0
 12  7  1  0
 13 16  1  0
 15 14  2  0
 16 17  1  0
 16 14  1  0
 18 21  1  0
 19 14  1  6
 19 20  1  0
 19 23  1  0
 20 21  1  0
 20 24  1  0
 21 19  1  0
 22 18  2  0
 23 24  1  0
 24 25  1  0
 26 25  1  0
 27 18  1  0
 27 28  2  0
 28 29  1  0
 28 31  1  0
 29 32  1  0
 30 29  2  0
 32 33  1  1
 32 35  1  0
 32 34  1  0
 35 34  1  0
 39 36  1  6
 39 37  1  0
 39 38  1  0
 39 27  1  0
 41 44  1  0
 41 42  1  0
 43 44  1  0
 43 41  1  0
 43 46  1  0
 45 42  1  0
 45 40  1  0
 46 45  2  0
 47 48  1  0
 47 52  1  0
 48 49  2  0
 49 50  1  0
 50 61  1  0
 51 50  1  0
 52 51  2  0
 53 47  1  0
 54 55  1  0
 54 56  1  0
 54 58  1  0
 55 57  1  0
 55 58  1  0
 56 57  1  0
 56 59  1  0
 57 59  1  0
 59 53  1  0
 60 53  2  0
 61 62  2  0
 61 66  1  0
 62 63  1  0
 63 70  1  0
 63 64  2  0
 65 64  1  0
 66 67  1  0
 66 65  2  0
 67 69  1  0
 68 67  1  0
 70 71  1  0
 71 72  2  0
 71 76  1  0
 73 72  1  0
 74 73  2  0
 75 74  1  0
 75 70  2  0
 77 76  1  0
M  ISO  4  40 101  45 101  47 100  53 100
M  END
>  <TORSDO>  (52) 
F 15

>  <SCORE>  (52) 
3.638

>  <name>  (52) 
51

>  <ligand_id>  (52) 
51

>  <original_smiles>  (52) 
[H]Oc1c([H])c([H])c([H])c([H])c1-c1nnc(N([H])[H])c(N2C([H])([H])C([H])([H])N(C(=O)N3C([H])([H])C([H])([H])C([H])(c4c([H])nc(Oc5c([H])c(-c6sc([H])nc6C([H])([H])[H])c([H])c([H])c5C([H])([H])N([H])C(=O)C5([H])N(C(=O)C([H])(N([H])C(=O)C6(F)C([H])([H])C6([H])[H])C(C([H])([H])[H])(C([H])([H])[H])C([H])([H])[H])C([H])([H])C([H])(O[H])C5([H])[H])c([H])c4[H])C([H])([H])C3([H])[H])C([H])([H])C2([H])[H])c1[H]

>  <smiles>  (52) 
[H]Oc1c([H])c([H])c([H])c([H])c1-c1nnc(N([H])[H])c(N2C([H])([H])C([H])([H])N(C(=O)N3C([H])([H])C([H])([H])C([H])(c4c([H])nc(Oc5c([H])c(-c6sc([H])nc6C([H])([H])[H])c([H])c([H])c5C([H])([H])N([H])C(=O)C5([H])N(C(=O)C([H])(N([H])C(=O)C6(F)C([H])([H])C6([H])[H])C(C([H])([H])[H])(C([H])([H])[H])C([H])([H])[H])C([H])([H])C([H])(O[H])C5([H])[H])c([H])c4[H])C([H])([H])C3([H])[H])C([H])([H])C2([H])[H])c1[H]

$$$$
52:0:0
     RDKit          3D

 76 84  0  0  1  0  0  0  0  0999 V2000
  -37.4090   13.5150  -23.7330 C   0  0  0  0  0  0  0  0  0  0  0  0
  -36.7150   13.4300  -22.4990 C   0  0  0  0  0  3  0  0  0  0  0  0
  -35.4480   12.8160  -22.4040 C   0  0  0  0  0  0  0  0  0  0  0  0
  -35.5500   12.3330  -24.7960 C   0  0  0  0  0  3  0  0  0  0  0  0
  -36.8290   12.9290  -24.8850 C   0  0  0  0  0  0  0  0  0  0  0  0
  -34.8640   12.2880  -23.5720 C   0  0  0  0  0  3  0  0  0  0  0  0
  -35.2330   12.2460  -19.9000 C   0  0  0  0  0  0  0  0  0  0  0  0
  -33.0710   12.6400  -19.3450 C   0  0  0  0  0  3  0  0  0  0  0  0
  -34.7600   12.6920  -21.1180 C   0  0  0  0  0  0  0  0  0  0  0  0
  -34.2570   12.2210  -18.9000 N   0  0  0  0  0  0  0  0  0  0  0  0
  -33.0650   13.1200  -21.0300 S   0  0  0  0  0  0  0  0  0  0  0  0
  -36.6100   11.7760  -19.5510 C   0  0  0  0  0  1  0  0  0  0  0  0
  -37.5970   12.9190  -26.2080 C   0  0  0  0  0  2  0  0  0  0  0  0
  -36.2070   13.6940  -28.1120 C   0  0  0  0  0  0  0  0  0  0  0  0
  -36.4640   14.8880  -27.9450 O   0  0  0  0  0  0  0  0  0  0  0  0
  -36.7540   12.7190  -27.3810 N   0  0  0  0  0  0  0  0  0  0  0  0
  -36.5090   11.7640  -27.6060 H   0  0  0  0  0  0  0  0  0  0  0  0
  -36.1280   14.4450  -31.1300 C   0  0  0  0  0  0  0  0  0  0  0  0
  -35.1630   13.2520  -29.1520 C   0  0  0  0  0  3  0  0  0  0  0  0
  -33.6730   14.4770  -30.6090 C   0  0  0  0  0  2  0  0  0  0  0  0
  -35.0730   14.1280  -30.3360 N   0  0  0  0  0  0  0  0  0  0  0  0
  -37.2560   13.9800  -30.9270 O   0  0  0  0  0  0  0  0  0  0  0  0
  -33.7650   13.2830  -28.5100 C   0  0  0  0  0  2  0  0  0  0  0  0
  -32.8300   13.6430  -29.6450 C   0  0  0  0  0  3  0  0  0  0  0  0
  -32.3990   12.4730  -30.3240 O   0  0  0  0  0  0  0  0  0  0  0  0
  -33.1680   12.0140  -30.6490 H   0  0  0  0  0  0  0  0  0  0  0  0
  -35.9310   15.3740  -32.3570 C   0  0  0  0  0  3  0  0  0  0  0  0
  -36.6920   14.7880  -33.4740 N   0  0  0  0  0  0  0  0  0  0  0  0
  -36.1870   14.2520  -34.5940 C   0  0  0  0  0  0  0  0  0  0  0  0
  -34.9780   14.2670  -34.8390 O   0  0  0  0  0  0  0  0  0  0  0  0
  -37.6880   14.6760  -33.3340 H   0  0  0  0  0  0  0  0  0  0  0  0
  -37.1890   13.6290  -35.5300 C   0  0  1  0  0  0  0  0  0  0  0  0
  -38.4580   13.5000  -34.9870 F   0  0  0  0  0  0  0  0  0  0  0  0
  -37.1030   13.9230  -37.0100 C   0  0  0  0  0  2  0  0  0  0  0  0
  -36.7480   12.5470  -36.4920 C   0  0  0  0  0  2  0  0  0  0  0  0
  -35.7010   17.4610  -30.8500 C   0  0  0  0  0  1  0  0  0  0  0  0
  -35.9350   17.7260  -33.3080 C   0  0  0  0  0  1  0  0  0  0  0  0
  -37.9040   17.0090  -31.9380 C   0  0  0  0  0  1  0  0  0  0  0  0
  -36.3770   16.8610  -32.1070 C   0  0  1  0  0  0  0  0  0  0  0  0
  -38.6270   14.1500  -23.9030 O   0  0  0  0  0  0  0  0  0  0  0  0
  -38.4620   16.9530  -25.7660 C   0  0  0  0  0  2  0  0  0  0  0  0
  -39.8760   18.3870  -25.1920 C   0  0  0  0  0  2  0  0  0  0  0  0
  -40.0570   16.0310  -23.9130 C   0  0  0  0  0  2  0  0  0  0  0  0
  -38.0080   16.2540  -22.6540 C   0  0  0  0  0  2  0  0  0  0  0  0
  -39.6230   17.6440  -26.5160 C   0  0  0  0  0  3  0  0  0  0  0  0
  -39.2280   17.1920  -24.4540 C   0  0  1  0  0  0  0  0  0  0  0  0
  -39.0940   15.2050  -23.0370 C   0  0  2  0  0  0  0  0  0  0  0  0
  -39.8370   14.5820  -21.8400 C   0  0  0  0  0  1  0  0  0  0  0  0
  -38.8640   18.5530  -22.3890 C   0  0  0  0  0  1  0  0  0  0  0  0
  -38.3260   17.5360  -23.3280 N   0  0  1  0  0  4  0  0  0  0  0  0
  -37.4670   17.9220  -23.6940 H   0  0  0  0  0  0  0  0  0  0  0  0
  -40.1300   19.1060  -28.4780 N   0  0  0  0  0  0  0  0  0  0  0  0
  -39.8740   19.4930  -29.8770 C   0  0  0  0  0  2  0  0  0  0  0  0
  -41.1480   19.4650  -30.7660 C   0  0  0  0  0  2  0  0  0  0  0  0
  -42.1810   18.5950  -30.2070 N   0  0  0  0  0  0  0  0  0  0  0  0
  -42.5780   18.8130  -28.8180 C   0  0  0  0  0  2  0  0  0  0  0  0
  -41.4620   19.4960  -28.0010 C   0  0  0  0  0  2  0  0  0  0  0  0
  -39.1870   18.4890  -27.7320 C   0  0  0  0  0  0  0  0  0  0  0  0
  -38.0000   18.4860  -28.0700 O   0  0  0  0  0  0  0  0  0  0  0  0
  -43.1140   18.0150  -31.0940 C   0  0  0  0  0  0  0  0  0  0  0  0
  -44.4150   18.5290  -31.2880 C   0  0  0  0  0  3  0  0  0  0  0  0
  -45.2970   17.8610  -32.1820 C   0  0  0  0  0  0  0  0  0  0  0  0
  -44.8700   16.7420  -32.8350 N   0  0  0  0  0  0  0  0  0  0  0  0
  -43.6480   16.2340  -32.6540 N   0  0  0  0  0  0  0  0  0  0  0  0
  -42.7880   16.8440  -31.8130 C   0  0  0  0  0  0  0  0  0  0  0  0
  -41.5580   16.2340  -31.6420 N   0  0  0  0  0  0  0  0  0  0  0  0
  -41.0830   16.5730  -30.8150 H   0  0  0  0  0  0  0  0  0  0  0  0
  -41.5430   15.2300  -31.7520 H   0  0  0  0  0  0  0  0  0  0  0  0
  -46.7070   18.3070  -32.4600 C   0  0  0  0  0  0  0  0  0  0  0  0
  -47.6310   17.6060  -33.3040 C   0  0  0  0  0  0  0  0  0  0  0  0
  -48.9450   18.0760  -33.5010 C   0  0  0  0  0  3  0  0  0  0  0  0
  -49.3880   19.2490  -32.8740 C   0  0  0  0  0  3  0  0  0  0  0  0
  -48.5080   19.9610  -32.0500 C   0  0  0  0  0  3  0  0  0  0  0  0
  -47.1940   19.4960  -31.8530 C   0  0  0  0  0  3  0  0  0  0  0  0
  -47.3120   16.4530  -33.9660 O   0  0  0  0  0  0  0  0  0  0  0  0
  -46.4000   16.2120  -33.7980 H   0  0  0  0  0  0  0  0  0  0  0  0
  1  2  1  0
  2  3  2  0
  3  9  1  0
  4  6  2  0
  5  4  1  0
  5  1  2  0
  6  3  1  0
  7 12  1  0
  7 10  1  0
  8 10  2  0
  9 11  1  0
  9  7  2  0
 11  8  1  0
 13  5  1  0
 14 15  2  0
 14 16  1  0
 16 13  1  0
 17 16  1  0
 18 22  2  0
 18 21  1  0
 19 23  1  0
 19 14  1  0
 20 21  1  0
 20 24  1  0
 21 19  1  0
 24 25  1  0
 24 23  1  0
 26 25  1  0
 27 39  1  0
 27 18  1  0
 28 31  1  0
 28 27  1  0
 29 28  1  0
 30 29  2  0
 32 33  1  1
 32 29  1  0
 34 35  1  0
 34 32  1  0
 35 32  1  0
 39 37  1  6
 39 38  1  0
 39 36  1  0
 40  1  1  0
 40 47  1  0
 46 42  1  6
 43 47  1  0
 45 58  1  0
 45 41  1  0
 45 42  1  0
 46 41  1  0
 46 43  1  0
 46 50  1  0
 47 44  1  0
 47 48  1  1
 50 44  1  0
 50 49  1  0
 50 51  1  6
 52 57  1  0
 52 58  1  0
 53 52  1  0
 54 55  1  0
 54 53  1  0
 55 56  1  0
 56 57  1  0
 59 58  2  0
 60 55  1  0
 61 60  1  0
 62 61  2  0
 63 64  2  0
 63 62  1  0
 64 65  1  0
 65 66  1  0
 65 60  2  0
 66 67  1  0
 68 66  1  0
 69 62  1  0
 69 74  1  0
 70 69  2  0
 71 70  1  0
 71 72  2  0
 72 73  1  0
 73 74  2  0
 75 76  1  0
 75 70  1  0
M  ISO  4  40 101  47 101  52 100  58 100
M  END
>  <TORSDO>  (53) 
F 15

>  <SCORE>  (53) 
-14.859

>  <name>  (53) 
52

>  <ligand_id>  (53) 
52

>  <original_smiles>  (53) 
[H]Oc1c([H])c([H])c([H])c([H])c1-c1nnc(N([H])[H])c(N2C([H])([H])C([H])([H])N(C(=O)C3([H])C([H])([H])C4(C3([H])[H])C([H])([H])C(Oc3c([H])c(-c5sc([H])nc5C([H])([H])[H])c([H])c([H])c3C([H])([H])N([H])C(=O)C3([H])N(C(=O)C([H])(N([H])C(=O)C5(F)C([H])([H])C5([H])[H])C(C([H])([H])[H])(C([H])([H])[H])C([H])([H])[H])C([H])([H])C([H])(O[H])C3([H])[H])(C([H])([H])[H])C([H])([H])[N+]4([H])C([H])([H])[H])C([H])([H])C2([H])[H])c1[H]

>  <smiles>  (53) 
[H]Oc1c([H])c([H])c([H])c([H])c1-c1nnc(N([H])[H])c(N2C([H])([H])C([H])([H])N(C(=O)C3([H])C([H])([H])C4(C3([H])[H])C([H])([H])C(Oc3c([H])c(-c5sc([H])nc5C([H])([H])[H])c([H])c([H])c3C([H])([H])N([H])C(=O)C3([H])N(C(=O)C([H])(N([H])C(=O)C5(F)C([H])([H])C5([H])[H])C(C([H])([H])[H])(C([H])([H])[H])C([H])([H])[H])C([H])([H])C([H])(O[H])C3([H])[H])(C([H])([H])[H])C([H])([H])[N+]4([H])C([H])([H])[H])C([H])([H])C2([H])[H])c1[H]

$$$$
53:0:0
     RDKit          3D

 81 89  0  0  1  0  0  0  0  0999 V2000
  -39.9510   17.6220  -25.4650 C   0  0  0  0  0  3  0  0  0  0  0  0
  -39.3300   18.6920  -26.1220 C   0  0  0  0  0  0  0  0  0  0  0  0
  -39.7540   17.5690  -24.0780 C   0  0  0  0  0  0  0  0  0  0  0  0
  -38.5400   19.4910  -24.1720 C   0  0  0  0  0  0  0  0  0  0  0  0
  -40.8250   14.2540  -22.9380 C   0  0  0  0  0  2  0  0  0  0  0  0
  -41.1040   15.4910  -23.7890 C   0  0  0  0  0  2  0  0  0  0  0  0
  -39.2040   15.9120  -22.4030 C   0  0  0  0  0  2  0  0  0  0  0  0
  -39.3410   14.4040  -22.6230 C   0  0  0  0  0  3  0  0  0  0  0  0
  -38.6080   19.6260  -25.4750 N   0  0  0  0  0  0  0  0  0  0  0  0
  -39.0550   18.5270  -23.4390 N   0  0  0  0  0  0  0  0  0  0  0  0
  -40.2210   16.5280  -23.2590 N   0  0  0  0  0  0  0  0  0  0  0  0
  -37.8060   20.4250  -23.5190 N   0  0  0  0  0  0  0  0  0  0  0  0
  -37.6460   21.2960  -24.0060 H   0  0  0  0  0  0  0  0  0  0  0  0
  -37.9650   20.5030  -22.5240 H   0  0  0  0  0  0  0  0  0  0  0  0
  -40.2620   19.1970  -28.3850 N   0  0  0  0  0  0  0  0  0  0  0  0
  -40.0190   19.5140  -29.8120 C   0  0  0  0  0  2  0  0  0  0  0  0
  -41.2920   19.4790  -30.6890 C   0  0  0  0  0  2  0  0  0  0  0  0
  -42.3190   18.6230  -30.1040 N   0  0  0  0  0  0  0  0  0  0  0  0
  -42.7460   18.9490  -28.7440 C   0  0  0  0  0  2  0  0  0  0  0  0
  -41.6070   19.5330  -27.8710 C   0  0  0  0  0  2  0  0  0  0  0  0
  -39.2390   18.8160  -27.5740 C   0  0  0  0  0  3  0  0  0  0  0  0
  -38.0180   18.5510  -28.0670 N   0  0  0  0  0  0  0  0  0  0  0  0
  -37.2900   18.3890  -27.3870 H   0  0  0  0  0  0  0  0  0  0  0  0
  -37.7830   18.6350  -29.0370 H   0  0  0  0  0  0  0  0  0  0  0  0
  -43.2460   18.0350  -30.9980 C   0  0  0  0  0  0  0  0  0  0  0  0
  -44.5400   18.5550  -31.2210 C   0  0  0  0  0  3  0  0  0  0  0  0
  -45.4120   17.8800  -32.1210 C   0  0  0  0  0  0  0  0  0  0  0  0
  -44.9790   16.7520  -32.7530 N   0  0  0  0  0  0  0  0  0  0  0  0
  -43.7600   16.2440  -32.5510 N   0  0  0  0  0  0  0  0  0  0  0  0
  -42.9120   16.8580  -31.7040 C   0  0  0  0  0  0  0  0  0  0  0  0
  -41.6850   16.2460  -31.5150 N   0  0  0  0  0  0  0  0  0  0  0  0
  -41.2220   16.5570  -30.6710 H   0  0  0  0  0  0  0  0  0  0  0  0
  -41.6560   15.2490  -31.6660 H   0  0  0  0  0  0  0  0  0  0  0  0
  -46.8160   18.3250  -32.4210 C   0  0  0  0  0  0  0  0  0  0  0  0
  -47.7250   17.6240  -33.2820 C   0  0  0  0  0  0  0  0  0  0  0  0
  -49.0360   18.0920  -33.4990 C   0  0  0  0  0  3  0  0  0  0  0  0
  -49.4920   19.2640  -32.8810 C   0  0  0  0  0  3  0  0  0  0  0  0
  -48.6250   19.9780  -32.0420 C   0  0  0  0  0  3  0  0  0  0  0  0
  -47.3150   19.5130  -31.8220 C   0  0  0  0  0  3  0  0  0  0  0  0
  -47.3950   16.4720  -33.9380 O   0  0  0  0  0  0  0  0  0  0  0  0
  -46.4840   16.2320  -33.7550 H   0  0  0  0  0  0  0  0  0  0  0  0
  -38.5980   14.0570  -23.7910 O   0  0  0  0  0  0  0  0  0  0  0  0
  -37.3370   13.5120  -23.6660 C   0  0  0  0  0  0  0  0  0  0  0  0
  -36.6300   13.4240  -22.4400 C   0  0  0  0  0  3  0  0  0  0  0  0
  -35.3730   12.7850  -22.3620 C   0  0  0  0  0  0  0  0  0  0  0  0
  -35.4770   12.3770  -24.7670 C   0  0  0  0  0  3  0  0  0  0  0  0
  -36.7490   12.9860  -24.8390 C   0  0  0  0  0  0  0  0  0  0  0  0
  -34.7980   12.2740  -23.5430 C   0  0  0  0  0  3  0  0  0  0  0  0
  -35.1650   12.0760  -19.8910 C   0  0  0  0  0  0  0  0  0  0  0  0
  -33.0200   12.4890  -19.2950 C   0  0  0  0  0  3  0  0  0  0  0  0
  -34.6930   12.6030  -21.0780 C   0  0  0  0  0  0  0  0  0  0  0  0
  -34.1990   12.0160  -18.8850 N   0  0  0  0  0  0  0  0  0  0  0  0
  -33.0090   13.0590  -20.9510 S   0  0  0  0  0  0  0  0  0  0  0  0
  -36.5370   11.5560  -19.5800 C   0  0  0  0  0  1  0  0  0  0  0  0
  -37.5170   13.0390  -26.1600 C   0  0  0  0  0  2  0  0  0  0  0  0
  -36.1750   13.7590  -28.1170 C   0  0  0  0  0  0  0  0  0  0  0  0
  -36.4610   14.9520  -28.0010 O   0  0  0  0  0  0  0  0  0  0  0  0
  -36.6850   12.8050  -27.3350 N   0  0  0  0  0  0  0  0  0  0  0  0
  -36.4070   11.8510  -27.5130 H   0  0  0  0  0  0  0  0  0  0  0  0
  -36.1130   14.4420  -31.1510 C   0  0  0  0  0  0  0  0  0  0  0  0
  -35.1370   13.2950  -29.1530 C   0  0  0  0  0  3  0  0  0  0  0  0
  -33.6540   14.4930  -30.6390 C   0  0  0  0  0  2  0  0  0  0  0  0
  -35.0530   14.1460  -30.3540 N   0  0  0  0  0  0  0  0  0  0  0  0
  -37.2390   13.9770  -30.9350 O   0  0  0  0  0  0  0  0  0  0  0  0
  -33.7360   13.3390  -28.5180 C   0  0  0  0  0  2  0  0  0  0  0  0
  -32.8050   13.6800  -29.6630 C   0  0  0  0  0  3  0  0  0  0  0  0
  -32.3700   12.4980  -30.3170 O   0  0  0  0  0  0  0  0  0  0  0  0
  -33.1350   12.0260  -30.6310 H   0  0  0  0  0  0  0  0  0  0  0  0
  -35.9260   15.3480  -32.3960 C   0  0  0  0  0  3  0  0  0  0  0  0
  -36.6460   14.7110  -33.5100 N   0  0  0  0  0  0  0  0  0  0  0  0
  -36.1040   14.1990  -34.6240 C   0  0  0  0  0  0  0  0  0  0  0  0
  -34.8970   14.2850  -34.8650 O   0  0  0  0  0  0  0  0  0  0  0  0
  -37.6330   14.5410  -33.3740 H   0  0  0  0  0  0  0  0  0  0  0  0
  -37.0640   13.5110  -35.5580 C   0  0  1  0  0  0  0  0  0  0  0  0
  -38.3150   13.2790  -35.0090 F   0  0  0  0  0  0  0  0  0  0  0  0
  -37.0140   13.8280  -37.0350 C   0  0  0  0  0  2  0  0  0  0  0  0
  -36.5490   12.4770  -36.5350 C   0  0  0  0  0  2  0  0  0  0  0  0
  -35.8500   17.4500  -30.8950 C   0  0  0  0  0  1  0  0  0  0  0  0
  -35.9300   17.6920  -33.3660 C   0  0  0  0  0  1  0  0  0  0  0  0
  -37.9640   16.9330  -32.1170 C   0  0  0  0  0  1  0  0  0  0  0  0
  -36.4250   16.8240  -32.1880 C   0  0  1  0  0  0  0  0  0  0  0  0
  1  3  1  0
  2  9  1  0
  2  1  2  0
  3 10  2  0
  3 11  1  0
  4 12  1  0
  4 10  1  0
  5  8  1  0
  6 11  1  0
  6  5  1  0
  8 42  1  0
  8  7  1  0
  9  4  2  0
 11  7  1  0
 12 14  1  0
 13 12  1  0
 15 20  1  0
 15 21  1  0
 16 15  1  0
 17 18  1  0
 17 16  1  0
 18 19  1  0
 19 20  1  0
 21 22  1  0
 21  2  1  0
 22 23  1  0
 24 22  1  0
 25 18  1  0
 26 25  1  0
 27 26  2  0
 28 29  2  0
 28 27  1  0
 29 30  1  0
 30 31  1  0
 30 25  2  0
 31 32  1  0
 33 31  1  0
 34 27  1  0
 34 39  1  0
 35 34  2  0
 36 35  1  0
 36 37  2  0
 37 38  1  0
 38 39  2  0
 40 41  1  0
 40 35  1  0
 42 43  1  0
 43 44  1  0
 44 45  2  0
 45 51  1  0
 46 48  2  0
 47 46  1  0
 47 43  2  0
 48 45  1  0
 49 54  1  0
 49 52  1  0
 50 52  2  0
 51 53  1  0
 51 49  2  0
 53 50  1  0
 55 47  1  0
 56 57  2  0
 56 58  1  0
 58 55  1  0
 59 58  1  0
 60 64  2  0
 60 63  1  0
 61 65  1  0
 61 56  1  0
 62 63  1  0
 62 66  1  0
 63 61  1  0
 66 67  1  0
 66 65  1  0
 68 67  1  0
 69 81  1  0
 69 60  1  0
 70 73  1  0
 70 69  1  0
 71 70  1  0
 72 71  2  0
 74 75  1  1
 74 71  1  0
 76 77  1  0
 76 74  1  0
 77 74  1  0
 81 79  1  6
 81 80  1  0
 81 78  1  0
M  ISO  4   8 101  15 100  21 100  42 101
M  END
>  <TORSDO>  (54) 
F 15

>  <SCORE>  (54) 
-15.063

>  <name>  (54) 
53

>  <ligand_id>  (54) 
53

>  <original_smiles>  (54) 
[H]Oc1c([H])c([H])c([H])c([H])c1-c1nnc(N([H])[H])c(N2C([H])([H])C([H])([H])N(C(c3nc(N([H])[H])nc(N4C([H])([H])C([H])([H])C([H])(Oc5c([H])c(-c6sc([H])nc6C([H])([H])[H])c([H])c([H])c5C([H])([H])N([H])C(=O)C5([H])N(C(=O)C([H])(N([H])C(=O)C6(F)C([H])([H])C6([H])[H])C(C([H])([H])[H])(C([H])([H])[H])C([H])([H])[H])C([H])([H])C([H])(O[H])C5([H])[H])C4([H])[H])c3[H])=[N+]([H])[H])C([H])([H])C2([H])[H])c1[H]

>  <smiles>  (54) 
[H]Oc1c([H])c([H])c([H])c([H])c1-c1nnc(N([H])[H])c(N2C([H])([H])C([H])([H])N(C(c3nc(N([H])[H])nc(N4C([H])([H])C([H])([H])C([H])(Oc5c([H])c(-c6sc([H])nc6C([H])([H])[H])c([H])c([H])c5C([H])([H])N([H])C(=O)C5([H])N(C(=O)C([H])(N([H])C(=O)C6(F)C([H])([H])C6([H])[H])C(C([H])([H])[H])(C([H])([H])[H])C([H])([H])[H])C([H])([H])C([H])(O[H])C5([H])[H])C4([H])[H])c3[H])=[N+]([H])[H])C([H])([H])C2([H])[H])c1[H]

$$$$
54:0:0
     RDKit          3D

 73 80  0  0  1  0  0  0  0  0999 V2000
  -37.4630   13.5110  -23.7240 C   0  0  0  0  0  0  0  0  0  0  0  0
  -36.7540   13.4570  -22.4960 C   0  0  0  0  0  3  0  0  0  0  0  0
  -35.4930   12.8280  -22.3770 C   0  0  0  0  0  0  0  0  0  0  0  0
  -35.5970   12.3100  -24.7580 C   0  0  0  0  0  3  0  0  0  0  0  0
  -36.8760   12.9050  -24.8720 C   0  0  0  0  0  0  0  0  0  0  0  0
  -34.9130   12.2760  -23.5320 C   0  0  0  0  0  3  0  0  0  0  0  0
  -35.2690   12.2690  -19.8660 C   0  0  0  0  0  0  0  0  0  0  0  0
  -33.1020   12.6470  -19.3200 C   0  0  0  0  0  3  0  0  0  0  0  0
  -34.8000   12.7090  -21.0890 C   0  0  0  0  0  0  0  0  0  0  0  0
  -34.2890   12.2380  -18.8700 N   0  0  0  0  0  0  0  0  0  0  0  0
  -33.1000   13.1200  -21.0070 S   0  0  0  0  0  0  0  0  0  0  0  0
  -36.6450   11.8080  -19.5060 C   0  0  0  0  0  1  0  0  0  0  0  0
  -37.5880   12.8540  -26.2210 C   0  0  0  0  0  2  0  0  0  0  0  0
  -36.2140   13.6820  -28.0850 C   0  0  0  0  0  0  0  0  0  0  0  0
  -36.4910   14.8700  -27.9050 O   0  0  0  0  0  0  0  0  0  0  0  0
  -36.7240   12.6840  -27.3670 N   0  0  0  0  0  0  0  0  0  0  0  0
  -36.4520   11.7390  -27.6010 H   0  0  0  0  0  0  0  0  0  0  0  0
  -36.1700   14.4450  -31.0920 C   0  0  0  0  0  0  0  0  0  0  0  0
  -35.1750   13.2590  -29.1280 C   0  0  0  0  0  3  0  0  0  0  0  0
  -33.7090   14.5000  -30.5800 C   0  0  0  0  0  2  0  0  0  0  0  0
  -35.1050   14.1380  -30.3060 N   0  0  0  0  0  0  0  0  0  0  0  0
  -37.2920   13.9680  -30.8830 O   0  0  0  0  0  0  0  0  0  0  0  0
  -33.7810   13.3040  -28.4840 C   0  0  0  0  0  2  0  0  0  0  0  0
  -32.8550   13.6730  -29.6210 C   0  0  0  0  0  3  0  0  0  0  0  0
  -32.4160   12.5050  -30.2980 O   0  0  0  0  0  0  0  0  0  0  0  0
  -33.1800   12.0330  -30.6150 H   0  0  0  0  0  0  0  0  0  0  0  0
  -35.9880   15.3750  -32.3190 C   0  0  0  0  0  3  0  0  0  0  0  0
  -35.7710   17.4720  -30.8250 C   0  0  0  0  0  1  0  0  0  0  0  0
  -36.0510   17.7220  -33.2800 C   0  0  0  0  0  1  0  0  0  0  0  0
  -37.9840   16.9730  -31.8700 C   0  0  0  0  0  1  0  0  0  0  0  0
  -36.4560   16.8550  -32.0670 C   0  0  1  0  0  0  0  0  0  0  0  0
  -36.7390   14.7770  -33.4350 N   0  0  0  0  0  0  0  0  0  0  0  0
  -36.2240   14.2410  -34.5500 C   0  0  0  0  0  0  0  0  0  0  0  0
  -35.0140   14.2680  -34.7910 O   0  0  0  0  0  0  0  0  0  0  0  0
  -37.7340   14.6540  -33.2970 H   0  0  0  0  0  0  0  0  0  0  0  0
  -37.2150   13.6040  -35.4860 C   0  0  1  0  0  0  0  0  0  0  0  0
  -38.4850   13.4640  -34.9490 F   0  0  0  0  0  0  0  0  0  0  0  0
  -37.1260   13.8930  -36.9670 C   0  0  0  0  0  2  0  0  0  0  0  0
  -36.7590   12.5220  -36.4410 C   0  0  0  0  0  2  0  0  0  0  0  0
  -38.6420   14.2450  -23.7000 O   0  0  0  0  0  0  0  0  0  0  0  0
  -39.8210   13.8850  -24.4210 C   0  0  0  0  0  2  0  0  0  0  0  0
  -39.4580   16.1320  -25.8610 C   0  0  0  0  0  2  0  0  0  0  0  0
  -41.1510   15.7890  -27.4930 C   0  0  0  0  0  2  0  0  0  0  0  0
  -40.3560   16.9280  -26.8350 C   0  0  0  0  0  3  0  0  0  0  0  0
  -40.4100   15.0670  -25.2630 C   0  0  0  0  0  3  0  0  0  0  0  0
  -41.4040   14.7070  -26.4150 C   0  0  2  0  0  0  0  0  0  0  0  0
  -41.1930   13.3200  -27.0610 C   0  0  0  0  0  1  0  0  0  0  0  0
  -42.8580   14.7870  -25.9100 C   0  0  0  0  0  1  0  0  0  0  0  0
  -40.2150   18.9200  -28.4020 N   0  0  0  0  0  0  0  0  0  0  0  0
  -39.8960   19.4500  -29.7450 C   0  0  0  0  0  2  0  0  0  0  0  0
  -41.1290   19.3880  -30.7030 C   0  0  0  0  0  2  0  0  0  0  0  0
  -42.2300   18.6030  -30.1360 N   0  0  0  0  0  0  0  0  0  0  0  0
  -42.6540   18.9270  -28.7730 C   0  0  0  0  0  2  0  0  0  0  0  0
  -41.4830   19.4900  -27.9350 C   0  0  0  0  0  2  0  0  0  0  0  0
  -39.6190   17.8070  -27.8900 C   0  0  0  0  0  0  0  0  0  0  0  0
  -38.5160   17.4310  -28.2950 O   0  0  0  0  0  0  0  0  0  0  0  0
  -43.1590   18.0170  -31.0270 C   0  0  0  0  0  0  0  0  0  0  0  0
  -44.4610   18.5290  -31.2190 C   0  0  0  0  0  3  0  0  0  0  0  0
  -45.3410   17.8670  -32.1170 C   0  0  0  0  0  0  0  0  0  0  0  0
  -44.9130   16.7510  -32.7740 N   0  0  0  0  0  0  0  0  0  0  0  0
  -43.6920   16.2400  -32.5920 N   0  0  0  0  0  0  0  0  0  0  0  0
  -42.8320   16.8470  -31.7500 C   0  0  0  0  0  0  0  0  0  0  0  0
  -41.6040   16.2320  -31.5790 N   0  0  0  0  0  0  0  0  0  0  0  0
  -41.1170   16.5730  -30.7600 H   0  0  0  0  0  0  0  0  0  0  0  0
  -41.5900   15.2280  -31.6890 H   0  0  0  0  0  0  0  0  0  0  0  0
  -46.7510   18.3160  -32.3900 C   0  0  0  0  0  0  0  0  0  0  0  0
  -47.6810   17.6140  -33.2270 C   0  0  0  0  0  0  0  0  0  0  0  0
  -48.9930   18.0890  -33.4200 C   0  0  0  0  0  3  0  0  0  0  0  0
  -49.4300   19.2670  -32.7980 C   0  0  0  0  0  3  0  0  0  0  0  0
  -48.5430   19.9800  -31.9820 C   0  0  0  0  0  3  0  0  0  0  0  0
  -47.2300   19.5110  -31.7890 C   0  0  0  0  0  3  0  0  0  0  0  0
  -47.3700   16.4570  -33.8830 O   0  0  0  0  0  0  0  0  0  0  0  0
  -46.4590   16.2110  -33.7150 H   0  0  0  0  0  0  0  0  0  0  0  0
  1 40  1  0
  1  2  1  0
  2  3  2  0
  3  9  1  0
  4  6  2  0
  5  4  1  0
  5  1  2  0
  6  3  1  0
  7 12  1  0
  7 10  1  0
  8 10  2  0
  9 11  1  0
  9  7  2  0
 11  8  1  0
 13  5  1  0
 14 15  2  0
 14 16  1  0
 16 13  1  0
 17 16  1  0
 18 22  2  0
 18 21  1  0
 19 23  1  0
 19 14  1  0
 20 21  1  0
 20 24  1  0
 21 19  1  0
 24 25  1  0
 24 23  1  0
 26 25  1  0
 27 31  1  0
 27 18  1  0
 31 29  1  6
 31 30  1  0
 31 28  1  0
 32 35  1  0
 32 27  1  0
 33 32  1  0
 34 33  2  0
 36 37  1  1
 36 33  1  0
 38 39  1  0
 38 36  1  0
 39 36  1  0
 41 40  1  0
 42 45  1  0
 43 44  1  0
 43 46  1  0
 44 55  1  0
 44 42  1  0
 45 41  1  0
 46 48  1  1
 46 45  1  0
 47 46  1  0
 49 54  1  0
 49 55  1  0
 50 49  1  0
 51 52  1  0
 51 50  1  0
 52 53  1  0
 53 54  1  0
 56 55  2  0
 57 52  1  0
 58 57  1  0
 59 58  2  0
 60 61  2  0
 60 59  1  0
 61 62  1  0
 62 63  1  0
 62 57  2  0
 63 64  1  0
 65 63  1  0
 66 59  1  0
 66 71  1  0
 67 66  2  0
 68 67  1  0
 68 69  2  0
 69 70  1  0
 70 71  2  0
 72 73  1  0
 72 67  1  0
M  ISO  4  40 101  41 101  49 100  55 100
M  END
>  <TORSDO>  (55) 
F 16

>  <SCORE>  (55) 
-14.867

>  <name>  (55) 
54

>  <ligand_id>  (55) 
54

>  <original_smiles>  (55) 
[H]Oc1c([H])c([H])c([H])c([H])c1-c1nnc(N([H])[H])c(N2C([H])([H])C([H])([H])N(C(=O)C3([H])C([H])([H])C([H])(C([H])([H])Oc4c([H])c(-c5sc([H])nc5C([H])([H])[H])c([H])c([H])c4C([H])([H])N([H])C(=O)C4([H])N(C(=O)C([H])(N([H])C(=O)C5(F)C([H])([H])C5([H])[H])C(C([H])([H])[H])(C([H])([H])[H])C([H])([H])[H])C([H])([H])C([H])(O[H])C4([H])[H])C(C([H])([H])[H])(C([H])([H])[H])C3([H])[H])C([H])([H])C2([H])[H])c1[H]

>  <smiles>  (55) 
[H]Oc1c([H])c([H])c([H])c([H])c1-c1nnc(N([H])[H])c(N2C([H])([H])C([H])([H])N(C(=O)C3([H])C([H])([H])C([H])(C([H])([H])Oc4c([H])c(-c5sc([H])nc5C([H])([H])[H])c([H])c([H])c4C([H])([H])N([H])C(=O)C4([H])N(C(=O)C([H])(N([H])C(=O)C5(F)C([H])([H])C5([H])[H])C(C([H])([H])[H])(C([H])([H])[H])C([H])([H])[H])C([H])([H])C([H])(O[H])C4([H])[H])C(C([H])([H])[H])(C([H])([H])[H])C3([H])[H])C([H])([H])C2([H])[H])c1[H]

$$$$
55:0:0
     RDKit          3D

 80 89  0  0  1  0  0  0  0  0999 V2000
  -38.6900   14.2730  -23.7870 O   0  0  0  0  0  0  0  0  0  0  0  0
  -41.1080   19.8870  -24.5250 C   0  0  0  0  0  3  0  0  0  0  0  0
  -41.1230   19.1290  -23.3520 C   0  0  0  0  0  3  0  0  0  0  0  0
  -38.7490   20.1970  -24.2420 C   0  0  0  0  0  3  0  0  0  0  0  0
  -39.8880   20.3520  -25.0510 C   0  0  0  0  0  0  0  0  0  0  0  0
  -39.9050   18.8450  -22.7100 C   0  0  0  0  0  0  0  0  0  0  0  0
  -40.4460   15.7350  -22.8350 C   0  0  0  0  0  2  0  0  0  0  0  0
  -38.0260   16.3200  -22.4500 C   0  0  0  0  0  2  0  0  0  0  0  0
  -40.7950   16.7510  -21.7160 C   0  0  0  0  0  2  0  0  0  0  0  0
  -38.4810   17.3490  -21.3820 C   0  0  0  0  0  2  0  0  0  0  0  0
  -39.0340   15.1370  -22.6560 C   0  0  0  0  0  3  0  0  0  0  0  0
  -38.7620   19.4630  -23.1050 N   0  0  0  0  0  0  0  0  0  0  0  0
  -39.8210   17.8590  -21.6930 N   0  0  0  0  0  0  0  0  0  0  0  0
  -39.9430   20.8510  -26.4640 C   0  0  0  0  0  3  0  0  0  0  0  0
  -39.4470   19.8670  -27.5270 C   0  0  0  0  0  3  0  0  0  0  0  0
  -38.9360   21.3130  -27.5050 C   0  0  2  0  0  0  0  0  0  0  0  0
  -37.4670   21.5440  -27.2090 C   0  0  0  0  0  1  0  0  0  0  0  0
  -39.4520   22.3920  -28.4480 C   0  0  0  0  0  1  0  0  0  0  0  0
  -40.4260   19.3220  -28.4770 N   0  0  0  0  0  0  0  0  0  0  0  0
  -40.0900   19.4570  -29.9080 C   0  0  0  0  0  2  0  0  0  0  0  0
  -41.3430   19.4900  -30.8390 C   0  0  0  0  0  2  0  0  0  0  0  0
  -42.3970   18.6120  -30.3440 N   0  0  0  0  0  0  0  0  0  0  0  0
  -42.7900   18.7330  -28.9480 C   0  0  0  0  0  2  0  0  0  0  0  0
  -41.8230   19.6150  -28.1460 C   0  0  0  0  0  2  0  0  0  0  0  0
  -43.3120   18.0250  -31.2430 C   0  0  0  0  0  0  0  0  0  0  0  0
  -44.6290   18.4970  -31.4040 C   0  0  0  0  0  3  0  0  0  0  0  0
  -45.4920   17.8310  -32.3160 C   0  0  0  0  0  0  0  0  0  0  0  0
  -45.0280   16.7430  -33.0020 N   0  0  0  0  0  0  0  0  0  0  0  0
  -43.7930   16.2690  -32.8390 N   0  0  0  0  0  0  0  0  0  0  0  0
  -42.9490   16.8840  -31.9880 C   0  0  0  0  0  0  0  0  0  0  0  0
  -41.7040   16.3060  -31.8290 N   0  0  0  0  0  0  0  0  0  0  0  0
  -41.2390   16.6290  -30.9930 H   0  0  0  0  0  0  0  0  0  0  0  0
  -41.6680   15.3070  -31.9630 H   0  0  0  0  0  0  0  0  0  0  0  0
  -46.9140   18.2370  -32.5710 C   0  0  0  0  0  0  0  0  0  0  0  0
  -47.8270   17.5220  -33.4150 C   0  0  0  0  0  0  0  0  0  0  0  0
  -49.1560   17.9520  -33.5970 C   0  0  0  0  0  3  0  0  0  0  0  0
  -49.6270   19.1070  -32.9560 C   0  0  0  0  0  3  0  0  0  0  0  0
  -48.7580   19.8360  -32.1320 C   0  0  0  0  0  3  0  0  0  0  0  0
  -47.4320   19.4080  -31.9520 C   0  0  0  0  0  3  0  0  0  0  0  0
  -47.4820   16.3830  -34.0880 O   0  0  0  0  0  0  0  0  0  0  0  0
  -46.5640   16.1610  -33.9280 H   0  0  0  0  0  0  0  0  0  0  0  0
  -37.4840   13.5840  -23.7390 C   0  0  0  0  0  0  0  0  0  0  0  0
  -36.7680   13.4560  -22.5230 C   0  0  0  0  0  3  0  0  0  0  0  0
  -35.5100   12.8500  -22.4420 C   0  0  0  0  0  0  0  0  0  0  0  0
  -35.6470   12.3810  -24.8270 C   0  0  0  0  0  3  0  0  0  0  0  0
  -36.9200   12.9970  -24.9080 C   0  0  0  0  0  0  0  0  0  0  0  0
  -34.9440   12.3140  -23.6110 C   0  0  0  0  0  3  0  0  0  0  0  0
  -35.3370   12.3340  -19.9330 C   0  0  0  0  0  0  0  0  0  0  0  0
  -33.1900   12.7330  -19.3490 C   0  0  0  0  0  3  0  0  0  0  0  0
  -34.8360   12.7420  -21.1500 C   0  0  0  0  0  0  0  0  0  0  0  0
  -34.3830   12.3300  -18.9140 N   0  0  0  0  0  0  0  0  0  0  0  0
  -33.1460   13.1660  -21.0460 S   0  0  0  0  0  0  0  0  0  0  0  0
  -36.7260   11.8880  -19.6000 C   0  0  0  0  0  1  0  0  0  0  0  0
  -37.6750   13.0260  -26.2390 C   0  0  0  0  0  2  0  0  0  0  0  0
  -36.2620   13.7140  -28.1630 C   0  0  0  0  0  0  0  0  0  0  0  0
  -36.5130   14.9130  -28.0220 O   0  0  0  0  0  0  0  0  0  0  0  0
  -36.8330   12.7650  -27.4120 N   0  0  0  0  0  0  0  0  0  0  0  0
  -36.6180   11.7980  -27.6160 H   0  0  0  0  0  0  0  0  0  0  0  0
  -36.1470   14.4290  -31.1930 C   0  0  0  0  0  0  0  0  0  0  0  0
  -35.2050   13.2600  -29.1880 C   0  0  0  0  0  3  0  0  0  0  0  0
  -33.7000   14.4780  -30.6420 C   0  0  0  0  0  2  0  0  0  0  0  0
  -35.1020   14.1230  -30.3820 N   0  0  0  0  0  0  0  0  0  0  0  0
  -37.2750   13.9600  -31.0020 O   0  0  0  0  0  0  0  0  0  0  0  0
  -33.8110   13.3020  -28.5360 C   0  0  0  0  0  2  0  0  0  0  0  0
  -32.8630   13.6570  -29.6640 C   0  0  0  0  0  3  0  0  0  0  0  0
  -32.4200   12.4840  -30.3270 O   0  0  0  0  0  0  0  0  0  0  0  0
  -33.1810   12.0210  -30.6650 H   0  0  0  0  0  0  0  0  0  0  0  0
  -35.9390   15.3540  -32.4240 C   0  0  0  0  0  3  0  0  0  0  0  0
  -35.7020   17.4490  -30.9210 C   0  0  0  0  0  1  0  0  0  0  0  0
  -35.9020   17.7000  -33.3820 C   0  0  0  0  0  1  0  0  0  0  0  0
  -37.8990   17.0150  -32.0250 C   0  0  0  0  0  1  0  0  0  0  0  0
  -36.3710   16.8490  -32.1820 C   0  0  1  0  0  0  0  0  0  0  0  0
  -36.7000   14.7690  -33.5410 N   0  0  0  0  0  0  0  0  0  0  0  0
  -36.1960   14.2280  -34.6600 C   0  0  0  0  0  0  0  0  0  0  0  0
  -34.9850   14.2310  -34.9000 O   0  0  0  0  0  0  0  0  0  0  0  0
  -37.6970   14.6580  -33.4040 H   0  0  0  0  0  0  0  0  0  0  0  0
  -37.1990   13.6100  -35.5970 C   0  0  1  0  0  0  0  0  0  0  0  0
  -38.4720   13.4950  -35.0590 F   0  0  0  0  0  0  0  0  0  0  0  0
  -37.1060   13.8920  -37.0790 C   0  0  0  0  0  2  0  0  0  0  0  0
  -36.7670   12.5150  -36.5500 C   0  0  0  0  0  2  0  0  0  0  0  0
  1 42  1  0
  2  3  1  0
  3  6  2  0
  4 12  2  0
  5  2  2  0
  5  4  1  0
  6 13  1  0
  7 11  1  0
  7  9  1  0
  8 10  1  0
  9 13  1  0
 11  1  1  0
 11  8  1  0
 12  6  1  0
 13 10  1  0
 14  5  1  0
 15 16  1  0
 15 14  1  0
 16 17  1  1
 16 14  1  0
 18 16  1  0
 19 20  1  0
 19 24  1  0
 19 15  1  0
 21 22  1  0
 21 20  1  0
 22 23  1  0
 23 24  1  0
 25 22  1  0
 26 25  1  0
 27 26  2  0
 28 29  2  0
 28 27  1  0
 29 30  1  0
 30 31  1  0
 30 25  2  0
 31 32  1  0
 33 31  1  0
 34 27  1  0
 34 39  1  0
 35 34  2  0
 36 35  1  0
 36 37  2  0
 37 38  1  0
 38 39  2  0
 40 41  1  0
 40 35  1  0
 42 43  1  0
 43 44  2  0
 44 50  1  0
 45 47  2  0
 46 45  1  0
 46 42  2  0
 47 44  1  0
 48 53  1  0
 48 51  1  0
 49 51  2  0
 50 52  1  0
 50 48  2  0
 52 49  1  0
 54 46  1  0
 55 56  2  0
 55 57  1  0
 57 54  1  0
 58 57  1  0
 59 63  2  0
 59 62  1  0
 60 64  1  0
 60 55  1  0
 61 62  1  0
 61 65  1  0
 62 60  1  0
 65 66  1  0
 65 64  1  0
 67 66  1  0
 68 72  1  0
 68 59  1  0
 72 70  1  6
 72 71  1  0
 72 69  1  0
 73 76  1  0
 73 68  1  0
 74 73  1  0
 75 74  2  0
 77 78  1  1
 77 74  1  0
 79 80  1  0
 79 77  1  0
 80 77  1  0
M  ISO  4   1 101  11 101  15 100  19 100
M  END
>  <TORSDO>  (56) 
F 16

>  <SCORE>  (56) 
-14.128

>  <name>  (56) 
55

>  <ligand_id>  (56) 
55

>  <original_smiles>  (56) 
[H]Oc1c([H])c([H])c([H])c([H])c1-c1nnc(N([H])[H])c(N2C([H])([H])C([H])([H])N(C3([H])C([H])(c4c([H])nc(N5C([H])([H])C([H])([H])C([H])(Oc6c([H])c(-c7sc([H])nc7C([H])([H])[H])c([H])c([H])c6C([H])([H])N([H])C(=O)C6([H])N(C(=O)C([H])(N([H])C(=O)C7(F)C([H])([H])C7([H])[H])C(C([H])([H])[H])(C([H])([H])[H])C([H])([H])[H])C([H])([H])C([H])(O[H])C6([H])[H])C([H])([H])C5([H])[H])c([H])c4[H])C3(C([H])([H])[H])C([H])([H])[H])C([H])([H])C2([H])[H])c1[H]

>  <smiles>  (56) 
[H]Oc1c([H])c([H])c([H])c([H])c1-c1nnc(N([H])[H])c(N2C([H])([H])C([H])([H])N(C3([H])C([H])(c4c([H])nc(N5C([H])([H])C([H])([H])C([H])(Oc6c([H])c(-c7sc([H])nc7C([H])([H])[H])c([H])c([H])c6C([H])([H])N([H])C(=O)C6([H])N(C(=O)C([H])(N([H])C(=O)C7(F)C([H])([H])C7([H])[H])C(C([H])([H])[H])(C([H])([H])[H])C([H])([H])[H])C([H])([H])C([H])(O[H])C6([H])[H])C([H])([H])C5([H])[H])c([H])c4[H])C3(C([H])([H])[H])C([H])([H])[H])C([H])([H])C2([H])[H])c1[H]

$$$$
56:0:0
     RDKit          3D

 72 80  0  0  1  0  0  0  0  0999 V2000
  -37.3880   13.6230  -23.7970 C   0  0  0  0  0  0  0  0  0  0  0  0
  -36.7330   13.5390  -22.5320 C   0  0  0  0  0  3  0  0  0  0  0  0
  -35.4820   12.8710  -22.3840 C   0  0  0  0  0  0  0  0  0  0  0  0
  -35.5620   12.3020  -24.7570 C   0  0  0  0  0  3  0  0  0  0  0  0
  -36.8150   12.9380  -24.8930 C   0  0  0  0  0  0  0  0  0  0  0  0
  -34.8970   12.2860  -23.5240 C   0  0  0  0  0  3  0  0  0  0  0  0
  -35.2310   12.2850  -19.8720 C   0  0  0  0  0  0  0  0  0  0  0  0
  -33.0600   12.6580  -19.3410 C   0  0  0  0  0  3  0  0  0  0  0  0
  -34.7800   12.7420  -21.0960 C   0  0  0  0  0  0  0  0  0  0  0  0
  -34.2430   12.2470  -18.8850 N   0  0  0  0  0  0  0  0  0  0  0  0
  -33.0730   13.1420  -21.0260 S   0  0  0  0  0  0  0  0  0  0  0  0
  -36.6030   11.8150  -19.5050 C   0  0  0  0  0  1  0  0  0  0  0  0
  -37.5720   12.8690  -26.2090 C   0  0  0  0  0  2  0  0  0  0  0  0
  -36.2100   13.6760  -28.0960 C   0  0  0  0  0  0  0  0  0  0  0  0
  -36.4900   14.8650  -27.9290 O   0  0  0  0  0  0  0  0  0  0  0  0
  -36.7260   12.6840  -27.3690 N   0  0  0  0  0  0  0  0  0  0  0  0
  -36.4550   11.7360  -27.5930 H   0  0  0  0  0  0  0  0  0  0  0  0
  -36.1630   14.4340  -31.1050 C   0  0  0  0  0  0  0  0  0  0  0  0
  -35.1680   13.2510  -29.1370 C   0  0  0  0  0  3  0  0  0  0  0  0
  -33.7030   14.4890  -30.5970 C   0  0  0  0  0  2  0  0  0  0  0  0
  -35.0980   14.1280  -30.3180 N   0  0  0  0  0  0  0  0  0  0  0  0
  -37.2850   13.9590  -30.8940 O   0  0  0  0  0  0  0  0  0  0  0  0
  -33.7710   13.3000  -28.4960 C   0  0  0  0  0  2  0  0  0  0  0  0
  -32.8470   13.6650  -29.6380 C   0  0  0  0  0  3  0  0  0  0  0  0
  -32.4140   12.4940  -30.3130 O   0  0  0  0  0  0  0  0  0  0  0  0
  -33.1810   12.0270  -30.6300 H   0  0  0  0  0  0  0  0  0  0  0  0
  -35.9830   15.3640  -32.3330 C   0  0  0  0  0  3  0  0  0  0  0  0
  -36.7380   14.7660  -33.4470 N   0  0  0  0  0  0  0  0  0  0  0  0
  -36.2250   14.2340  -34.5650 C   0  0  0  0  0  0  0  0  0  0  0  0
  -35.0160   14.2670  -34.8120 O   0  0  0  0  0  0  0  0  0  0  0  0
  -37.7310   14.6390  -33.3040 H   0  0  0  0  0  0  0  0  0  0  0  0
  -37.2180   13.5950  -35.4990 C   0  0  1  0  0  0  0  0  0  0  0  0
  -38.4840   13.4450  -34.9550 F   0  0  0  0  0  0  0  0  0  0  0  0
  -37.1400   13.8870  -36.9790 C   0  0  0  0  0  2  0  0  0  0  0  0
  -36.7610   12.5180  -36.4590 C   0  0  0  0  0  2  0  0  0  0  0  0
  -35.7820   17.4530  -30.8250 C   0  0  0  0  0  1  0  0  0  0  0  0
  -36.0190   17.7170  -33.2830 C   0  0  0  0  0  1  0  0  0  0  0  0
  -37.9790   16.9730  -31.9130 C   0  0  0  0  0  1  0  0  0  0  0  0
  -36.4500   16.8460  -32.0820 C   0  0  1  0  0  0  0  0  0  0  0  0
  -38.5530   14.3640  -24.0120 O   0  0  0  0  0  0  0  0  0  0  0  0
  -37.4210   17.9050  -24.5310 C   0  0  0  0  0  3  0  0  0  0  0  0
  -38.2200   18.3660  -25.6000 C   0  0  0  0  0  3  0  0  0  0  0  0
  -37.5440   16.5820  -24.0350 C   0  0  0  0  0  3  0  0  0  0  0  0
  -39.1230   17.4670  -26.1860 C   0  0  0  0  0  0  0  0  0  0  0  0
  -39.2160   16.1330  -25.7220 C   0  0  0  0  0  0  0  0  0  0  0  0
  -38.4470   15.6450  -24.6010 C   0  0  0  0  0  0  0  0  0  0  0  0
  -40.2550   15.4190  -26.5800 C   0  0  0  0  0  2  0  0  0  0  0  0
  -40.4940   16.3750  -27.7990 C   0  0  0  0  0  2  0  0  0  0  0  0
  -40.2010   17.7760  -27.2320 C   0  0  0  0  0  3  0  0  0  0  0  0
  -40.2250   19.0370  -28.0700 N   0  0  0  0  0  0  0  0  0  0  0  0
  -39.8580   19.1040  -29.5180 C   0  0  0  0  0  2  0  0  0  0  0  0
  -41.0440   19.3650  -30.5190 C   0  0  0  0  0  2  0  0  0  0  0  0
  -42.2400   18.6600  -30.0660 N   0  0  0  0  0  0  0  0  0  0  0  0
  -42.6460   18.9070  -28.6840 C   0  0  0  0  0  2  0  0  0  0  0  0
  -41.5410   19.6700  -27.8990 C   0  0  0  0  0  2  0  0  0  0  0  0
  -43.1260   18.0440  -30.9780 C   0  0  0  0  0  0  0  0  0  0  0  0
  -44.4240   18.5450  -31.2150 C   0  0  0  0  0  3  0  0  0  0  0  0
  -45.2790   17.8640  -32.1210 C   0  0  0  0  0  0  0  0  0  0  0  0
  -44.8350   16.7340  -32.7430 N   0  0  0  0  0  0  0  0  0  0  0  0
  -43.6170   16.2330  -32.5190 N   0  0  0  0  0  0  0  0  0  0  0  0
  -42.7780   16.8590  -31.6670 C   0  0  0  0  0  0  0  0  0  0  0  0
  -41.5600   16.2420  -31.4470 N   0  0  0  0  0  0  0  0  0  0  0  0
  -41.1130   16.5740  -30.6030 H   0  0  0  0  0  0  0  0  0  0  0  0
  -41.5460   15.2380  -31.5630 H   0  0  0  0  0  0  0  0  0  0  0  0
  -46.6810   18.3080  -32.4400 C   0  0  0  0  0  0  0  0  0  0  0  0
  -47.5870   17.5920  -33.2900 C   0  0  0  0  0  0  0  0  0  0  0  0
  -48.8950   18.0620  -33.5260 C   0  0  0  0  0  3  0  0  0  0  0  0
  -49.3480   19.2500  -32.9370 C   0  0  0  0  0  3  0  0  0  0  0  0
  -48.4830   19.9780  -32.1090 C   0  0  0  0  0  3  0  0  0  0  0  0
  -47.1770   19.5130  -31.8720 C   0  0  0  0  0  3  0  0  0  0  0  0
  -47.2590   16.4230  -33.9170 O   0  0  0  0  0  0  0  0  0  0  0  0
  -46.3520   16.1830  -33.7220 H   0  0  0  0  0  0  0  0  0  0  0  0
  1  2  1  0
  2  3  2  0
  3  9  1  0
  4  6  2  0
  5  4  1  0
  5  1  2  0
  6  3  1  0
  7 12  1  0
  7 10  1  0
  8 10  2  0
  9 11  1  0
  9  7  2  0
 11  8  1  0
 13  5  1  0
 14 15  2  0
 14 16  1  0
 16 13  1  0
 17 16  1  0
 18 22  2  0
 18 21  1  0
 19 23  1  0
 19 14  1  0
 20 21  1  0
 20 24  1  0
 21 19  1  0
 24 25  1  0
 24 23  1  0
 26 25  1  0
 27 39  1  0
 27 18  1  0
 28 31  1  0
 28 27  1  0
 29 28  1  0
 30 29  2  0
 32 33  1  1
 32 29  1  0
 34 35  1  0
 34 32  1  0
 35 32  1  0
 39 37  1  6
 39 38  1  0
 39 36  1  0
 40  1  1  0
 41 43  1  0
 42 41  2  0
 44 45  2  0
 44 42  1  0
 45 46  1  0
 46 43  2  0
 46 40  1  0
 47 45  1  0
 48 47  1  0
 49 48  1  0
 49 44  1  0
 50 51  1  0
 50 55  1  0
 50 49  1  0
 52 53  1  0
 52 51  1  0
 53 54  1  0
 54 55  1  0
 56 53  1  0
 57 56  1  0
 58 57  2  0
 59 60  2  0
 59 58  1  0
 60 61  1  0
 61 62  1  0
 61 56  2  0
 62 63  1  0
 64 62  1  0
 65 58  1  0
 65 70  1  0
 66 65  2  0
 67 66  1  0
 67 68  2  0
 68 69  1  0
 69 70  2  0
 71 72  1  0
 71 66  1  0
M  ISO  4  40 101  46 101  49 100  50 100
M  END
>  <TORSDO>  (57) 
F 15

>  <SCORE>  (57) 
-14.903

>  <name>  (57) 
56

>  <ligand_id>  (57) 
56

>  <original_smiles>  (57) 
[H]Oc1c([H])c([H])c([H])c([H])c1-c1nnc(N([H])[H])c(N2C([H])([H])C([H])([H])N(C3([H])c4c([H])c([H])c([H])c(Oc5c([H])c(-c6sc([H])nc6C([H])([H])[H])c([H])c([H])c5C([H])([H])N([H])C(=O)C5([H])N(C(=O)C([H])(N([H])C(=O)C6(F)C([H])([H])C6([H])[H])C(C([H])([H])[H])(C([H])([H])[H])C([H])([H])[H])C([H])([H])C([H])(O[H])C5([H])[H])c4C([H])([H])C3([H])[H])C([H])([H])C2([H])[H])c1[H]

>  <smiles>  (57) 
[H]Oc1c([H])c([H])c([H])c([H])c1-c1nnc(N([H])[H])c(N2C([H])([H])C([H])([H])N(C3([H])c4c([H])c([H])c([H])c(Oc5c([H])c(-c6sc([H])nc6C([H])([H])[H])c([H])c([H])c5C([H])([H])N([H])C(=O)C5([H])N(C(=O)C([H])(N([H])C(=O)C6(F)C([H])([H])C6([H])[H])C(C([H])([H])[H])(C([H])([H])[H])C([H])([H])[H])C([H])([H])C([H])(O[H])C5([H])[H])c4C([H])([H])C3([H])[H])C([H])([H])C2([H])[H])c1[H]

$$$$
57:0:0
     RDKit          3D

 72 79  0  0  1  0  0  0  0  0999 V2000
  -37.4360   13.5410  -23.7600 C   0  0  0  0  0  0  0  0  0  0  0  0
  -36.7670   13.4460  -22.5120 C   0  0  0  0  0  3  0  0  0  0  0  0
  -35.5110   12.7970  -22.3880 C   0  0  0  0  0  0  0  0  0  0  0  0
  -35.5890   12.3020  -24.7800 C   0  0  0  0  0  3  0  0  0  0  0  0
  -36.8470   12.9340  -24.8980 C   0  0  0  0  0  0  0  0  0  0  0  0
  -34.9230   12.2490  -23.5460 C   0  0  0  0  0  3  0  0  0  0  0  0
  -35.2880   12.1940  -19.8870 C   0  0  0  0  0  0  0  0  0  0  0  0
  -33.1210   12.5530  -19.3300 C   0  0  0  0  0  3  0  0  0  0  0  0
  -34.8180   12.6560  -21.1010 C   0  0  0  0  0  0  0  0  0  0  0  0
  -34.3100   12.1420  -18.8890 N   0  0  0  0  0  0  0  0  0  0  0  0
  -33.1140   13.0560  -21.0090 S   0  0  0  0  0  0  0  0  0  0  0  0
  -36.6690   11.7320  -19.5430 C   0  0  0  0  0  1  0  0  0  0  0  0
  -37.5710   12.9570  -26.2390 C   0  0  0  0  0  2  0  0  0  0  0  0
  -36.1820   13.7080  -28.1190 C   0  0  0  0  0  0  0  0  0  0  0  0
  -36.4400   14.9040  -27.9570 O   0  0  0  0  0  0  0  0  0  0  0  0
  -36.7200   12.7320  -27.3870 N   0  0  0  0  0  0  0  0  0  0  0  0
  -36.4710   11.7740  -27.6010 H   0  0  0  0  0  0  0  0  0  0  0  0
  -36.1280   14.4310  -31.1320 C   0  0  0  0  0  0  0  0  0  0  0  0
  -35.1440   13.2600  -29.1520 C   0  0  0  0  0  3  0  0  0  0  0  0
  -33.6700   14.4800  -30.6170 C   0  0  0  0  0  2  0  0  0  0  0  0
  -35.0670   14.1270  -30.3410 N   0  0  0  0  0  0  0  0  0  0  0  0
  -37.2530   13.9620  -30.9210 O   0  0  0  0  0  0  0  0  0  0  0  0
  -33.7500   13.3060  -28.5080 C   0  0  0  0  0  2  0  0  0  0  0  0
  -32.8210   13.6580  -29.6490 C   0  0  0  0  0  3  0  0  0  0  0  0
  -32.3910   12.4810  -30.3140 O   0  0  0  0  0  0  0  0  0  0  0  0
  -33.1580   12.0160  -30.6310 H   0  0  0  0  0  0  0  0  0  0  0  0
  -35.9410   15.3510  -32.3680 C   0  0  0  0  0  3  0  0  0  0  0  0
  -36.7120   14.7570  -33.4730 N   0  0  0  0  0  0  0  0  0  0  0  0
  -36.2140   14.2070  -34.5880 C   0  0  0  0  0  0  0  0  0  0  0  0
  -35.0050   14.2150  -34.8410 O   0  0  0  0  0  0  0  0  0  0  0  0
  -37.7060   14.6500  -33.3240 H   0  0  0  0  0  0  0  0  0  0  0  0
  -37.2230   13.5780  -35.5120 C   0  0  1  0  0  0  0  0  0  0  0  0
  -38.4880   13.4580  -34.9620 F   0  0  0  0  0  0  0  0  0  0  0  0
  -37.1440   13.8550  -36.9960 C   0  0  0  0  0  2  0  0  0  0  0  0
  -36.7890   12.4840  -36.4640 C   0  0  0  0  0  2  0  0  0  0  0  0
  -35.6890   17.4510  -30.8820 C   0  0  0  0  0  1  0  0  0  0  0  0
  -35.9540   17.6940  -33.3380 C   0  0  0  0  0  1  0  0  0  0  0  0
  -37.9070   16.9920  -31.9360 C   0  0  0  0  0  1  0  0  0  0  0  0
  -36.3810   16.8400  -32.1240 C   0  0  1  0  0  0  0  0  0  0  0  0
  -38.5420   14.3670  -23.8900 O   0  0  0  0  0  0  0  0  0  0  0  0
  -40.4500   14.3580  -25.1300 C   0  0  0  0  0  0  0  0  0  0  0  0
  -41.7770   13.7230  -25.4980 C   0  0  0  0  0  1  0  0  0  0  0  0
  -39.7460   13.7350  -24.2440 N   0  0  0  0  0  0  0  0  0  0  0  0
  -40.3090   19.1500  -28.1480 N   0  0  0  0  0  0  0  0  0  0  0  0
  -39.9550   19.3430  -29.5710 C   0  0  0  0  0  2  0  0  0  0  0  0
  -41.1790   19.4550  -30.5330 C   0  0  0  0  0  2  0  0  0  0  0  0
  -42.3080   18.6740  -30.0350 N   0  0  0  0  0  0  0  0  0  0  0  0
  -42.7400   18.9030  -28.6560 C   0  0  0  0  0  2  0  0  0  0  0  0
  -41.6520   19.6250  -27.8150 C   0  0  0  0  0  2  0  0  0  0  0  0
  -39.7610   16.8370  -25.2820 C   0  0  0  0  0  3  0  0  0  0  0  0
  -39.7150   18.0180  -26.0630 C   0  0  0  0  0  3  0  0  0  0  0  0
  -40.1620   15.6350  -25.9050 C   0  0  0  0  0  0  0  0  0  0  0  0
  -40.0520   17.9500  -27.4360 C   0  0  0  0  0  0  0  0  0  0  0  0
  -40.3990   15.6310  -27.2540 N   0  0  0  0  0  0  0  0  0  0  0  0
  -40.3380   16.7500  -28.0030 N   0  0  0  0  0  0  0  0  0  0  0  0
  -43.1810   18.0480  -30.9510 C   0  0  0  0  0  0  0  0  0  0  0  0
  -44.4840   18.5290  -31.1970 C   0  0  0  0  0  3  0  0  0  0  0  0
  -45.3190   17.8380  -32.1140 C   0  0  0  0  0  0  0  0  0  0  0  0
  -44.8480   16.7210  -32.7410 N   0  0  0  0  0  0  0  0  0  0  0  0
  -43.6210   16.2410  -32.5110 N   0  0  0  0  0  0  0  0  0  0  0  0
  -42.8040   16.8750  -31.6450 C   0  0  0  0  0  0  0  0  0  0  0  0
  -41.5750   16.2820  -31.4190 N   0  0  0  0  0  0  0  0  0  0  0  0
  -41.1640   16.6010  -30.5480 H   0  0  0  0  0  0  0  0  0  0  0  0
  -41.5510   15.2800  -31.5380 H   0  0  0  0  0  0  0  0  0  0  0  0
  -46.7260   18.2570  -32.4410 C   0  0  0  0  0  0  0  0  0  0  0  0
  -47.6100   17.5320  -33.3070 C   0  0  0  0  0  0  0  0  0  0  0  0
  -48.9250   17.9790  -33.5500 C   0  0  0  0  0  3  0  0  0  0  0  0
  -49.4070   19.1510  -32.9510 C   0  0  0  0  0  3  0  0  0  0  0  0
  -48.5650   19.8860  -32.1080 C   0  0  0  0  0  3  0  0  0  0  0  0
  -47.2510   19.4450  -31.8640 C   0  0  0  0  0  3  0  0  0  0  0  0
  -47.2510   16.3790  -33.9450 O   0  0  0  0  0  0  0  0  0  0  0  0
  -46.3410   16.1550  -33.7450 H   0  0  0  0  0  0  0  0  0  0  0  0
  1  2  1  0
  2  3  2  0
  3  9  1  0
  4  6  2  0
  5  4  1  0
  5  1  2  0
  6  3  1  0
  7 12  1  0
  7 10  1  0
  8 10  2  0
  9 11  1  0
  9  7  2  0
 11  8  1  0
 13  5  1  0
 14 15  2  0
 14 16  1  0
 16 13  1  0
 17 16  1  0
 18 22  2  0
 18 21  1  0
 19 23  1  0
 19 14  1  0
 20 21  1  0
 20 24  1  0
 21 19  1  0
 24 25  1  0
 24 23  1  0
 26 25  1  0
 27 39  1  0
 27 18  1  0
 28 31  1  0
 28 27  1  0
 29 28  1  0
 30 29  2  0
 32 33  1  1
 32 29  1  0
 34 35  1  0
 34 32  1  0
 35 32  1  0
 39 37  1  6
 39 38  1  0
 39 36  1  0
 40  1  1  0
 41 43  2  0
 42 41  1  0
 43 40  1  0
 44 49  1  0
 44 53  1  0
 45 44  1  0
 46 47  1  0
 46 45  1  0
 47 48  1  0
 48 49  1  0
 51 50  2  0
 52 50  1  0
 52 41  1  0
 53 51  1  0
 54 52  2  0
 55 53  2  0
 55 54  1  0
 56 47  1  0
 57 56  1  0
 58 57  2  0
 59 60  2  0
 59 58  1  0
 60 61  1  0
 61 62  1  0
 61 56  2  0
 62 63  1  0
 64 62  1  0
 65 58  1  0
 65 70  1  0
 66 65  2  0
 67 66  1  0
 67 68  2  0
 68 69  1  0
 69 70  2  0
 71 72  1  0
 71 66  1  0
M  ISO  4  40 101  43 101  44 100  53 100
M  END
>  <TORSDO>  (58) 
F 15

>  <SCORE>  (58) 
-14.827

>  <name>  (58) 
57

>  <ligand_id>  (58) 
57

>  <original_smiles>  (58) 
[H]Oc1c([H])c([H])c([H])c([H])c1-c1nnc(N([H])[H])c(N2C([H])([H])C([H])([H])N(c3nnc(C(=NOc4c([H])c(-c5sc([H])nc5C([H])([H])[H])c([H])c([H])c4C([H])([H])N([H])C(=O)C4([H])N(C(=O)C([H])(N([H])C(=O)C5(F)C([H])([H])C5([H])[H])C(C([H])([H])[H])(C([H])([H])[H])C([H])([H])[H])C([H])([H])C([H])(O[H])C4([H])[H])C([H])([H])[H])c([H])c3[H])C([H])([H])C2([H])[H])c1[H]

>  <smiles>  (58) 
[H]Oc1c([H])c([H])c([H])c([H])c1-c1nnc(N([H])[H])c(N2C([H])([H])C([H])([H])N(c3nnc(C(=NOc4c([H])c(-c5sc([H])nc5C([H])([H])[H])c([H])c([H])c4C([H])([H])N([H])C(=O)C4([H])N(C(=O)C([H])(N([H])C(=O)C5(F)C([H])([H])C5([H])[H])C(C([H])([H])[H])(C([H])([H])[H])C([H])([H])[H])C([H])([H])C([H])(O[H])C4([H])[H])C([H])([H])[H])c([H])c3[H])C([H])([H])C2([H])[H])c1[H]

$$$$
58:0:0
     RDKit          3D

 80 89  0  0  1  0  0  0  0  0999 V2000
  -38.6180   14.0110  -23.8290 O   0  0  0  0  0  0  0  0  0  0  0  0
  -37.3580   13.4640  -23.7070 C   0  0  0  0  0  0  0  0  0  0  0  0
  -36.6530   13.3900  -22.4780 C   0  0  0  0  0  3  0  0  0  0  0  0
  -35.4000   12.7490  -22.3900 C   0  0  0  0  0  0  0  0  0  0  0  0
  -35.5090   12.2900  -24.7870 C   0  0  0  0  0  3  0  0  0  0  0  0
  -36.7800   12.9020  -24.8700 C   0  0  0  0  0  0  0  0  0  0  0  0
  -34.8280   12.2160  -23.5610 C   0  0  0  0  0  3  0  0  0  0  0  0
  -35.2060   12.1270  -19.8940 C   0  0  0  0  0  0  0  0  0  0  0  0
  -33.0450   12.4920  -19.3200 C   0  0  0  0  0  3  0  0  0  0  0  0
  -34.7220   12.5920  -21.1020 C   0  0  0  0  0  0  0  0  0  0  0  0
  -34.2380   12.0750  -18.8890 N   0  0  0  0  0  0  0  0  0  0  0  0
  -33.0240   12.9990  -20.9960 S   0  0  0  0  0  0  0  0  0  0  0  0
  -36.5910   11.6640  -19.5600 C   0  0  0  0  0  1  0  0  0  0  0  0
  -37.5470   12.9330  -26.1930 C   0  0  0  0  0  2  0  0  0  0  0  0
  -36.1710   13.6950  -28.1120 C   0  0  0  0  0  0  0  0  0  0  0  0
  -36.4410   14.8890  -27.9590 O   0  0  0  0  0  0  0  0  0  0  0  0
  -36.7070   12.7250  -27.3670 N   0  0  0  0  0  0  0  0  0  0  0  0
  -36.4520   11.7700  -27.5790 H   0  0  0  0  0  0  0  0  0  0  0  0
  -36.1110   14.4130  -31.1380 C   0  0  0  0  0  0  0  0  0  0  0  0
  -35.1250   13.2540  -29.1490 C   0  0  0  0  0  3  0  0  0  0  0  0
  -33.6560   14.4800  -30.6250 C   0  0  0  0  0  2  0  0  0  0  0  0
  -35.0510   14.1160  -30.3430 N   0  0  0  0  0  0  0  0  0  0  0  0
  -37.2330   13.9350  -30.9260 O   0  0  0  0  0  0  0  0  0  0  0  0
  -33.7250   13.3090  -28.5130 C   0  0  0  0  0  2  0  0  0  0  0  0
  -32.7980   13.6710  -29.6560 C   0  0  0  0  0  3  0  0  0  0  0  0
  -32.3500   12.5000  -30.3210 O   0  0  0  0  0  0  0  0  0  0  0  0
  -33.1130   12.0200  -30.6310 H   0  0  0  0  0  0  0  0  0  0  0  0
  -35.9320   15.3320  -32.3750 C   0  0  0  0  0  3  0  0  0  0  0  0
  -35.7590   17.4300  -30.8770 C   0  0  0  0  0  1  0  0  0  0  0  0
  -35.9570   17.6780  -33.3390 C   0  0  0  0  0  1  0  0  0  0  0  0
  -37.9370   16.9400  -31.9960 C   0  0  0  0  0  1  0  0  0  0  0  0
  -36.4050   16.8130  -32.1410 C   0  0  1  0  0  0  0  0  0  0  0  0
  -36.6790   14.7190  -33.4860 N   0  0  0  0  0  0  0  0  0  0  0  0
  -36.1620   14.1970  -34.6080 C   0  0  0  0  0  0  0  0  0  0  0  0
  -34.9560   14.2510  -34.8590 O   0  0  0  0  0  0  0  0  0  0  0  0
  -37.6690   14.5750  -33.3390 H   0  0  0  0  0  0  0  0  0  0  0  0
  -37.1480   13.5370  -35.5370 C   0  0  1  0  0  0  0  0  0  0  0  0
  -38.4070   13.3620  -34.9860 F   0  0  0  0  0  0  0  0  0  0  0  0
  -37.0820   13.8270  -37.0190 C   0  0  0  0  0  2  0  0  0  0  0  0
  -36.6730   12.4680  -36.4980 C   0  0  0  0  0  2  0  0  0  0  0  0
  -39.0600   15.0060  -22.9090 C   0  0  0  0  0  2  0  0  0  0  0  0
  -37.9730   16.6620  -24.5000 C   0  0  0  0  0  3  0  0  0  0  0  0
  -38.5800   17.4490  -22.3390 C   0  0  0  0  0  3  0  0  0  0  0  0
  -38.5050   16.3770  -23.2390 C   0  0  0  0  0  0  0  0  0  0  0  0
  -37.7740   18.8560  -23.9330 C   0  0  0  0  0  0  0  0  0  0  0  0
  -39.9400   21.5420  -25.7800 C   0  0  0  0  0  2  0  0  0  0  0  0
  -39.2250   22.8010  -25.2340 C   0  0  0  0  0  2  0  0  0  0  0  0
  -36.9970   21.9060  -25.7990 C   0  0  0  0  0  2  0  0  0  0  0  0
  -37.8350   21.3630  -23.6200 C   0  0  0  0  0  2  0  0  0  0  0  0
  -39.0240   20.4260  -26.3780 C   0  0  0  0  0  3  0  0  0  0  0  0
  -37.8240   22.5000  -24.6660 C   0  0  0  0  0  3  0  0  0  0  0  0
  -37.5680   20.4860  -25.8010 C   0  0  0  0  0  3  0  0  0  0  0  0
  -37.6070   17.9050  -24.8360 N   0  0  0  0  0  0  0  0  0  0  0  0
  -38.2150   18.6960  -22.6940 N   0  0  0  0  0  0  0  0  0  0  0  0
  -37.5570   20.1470  -24.3810 N   0  0  0  0  0  0  0  0  0  0  0  0
  -39.9940   19.5770  -28.5520 N   0  0  0  0  0  0  0  0  0  0  0  0
  -39.8160   19.2900  -29.9850 C   0  0  0  0  0  2  0  0  0  0  0  0
  -41.0980   19.4460  -30.8030 C   0  0  0  0  0  2  0  0  0  0  0  0
  -42.1140   18.5940  -30.2210 N   0  0  0  0  0  0  0  0  0  0  0  0
  -42.4980   18.8840  -28.8510 C   0  0  0  0  0  2  0  0  0  0  0  0
  -41.3320   19.3690  -27.9470 C   0  0  0  0  0  2  0  0  0  0  0  0
  -39.0390   20.3220  -27.9230 C   0  0  0  0  0  0  0  0  0  0  0  0
  -38.1090   20.8490  -28.5410 O   0  0  0  0  0  0  0  0  0  0  0  0
  -43.0560   18.0130  -31.0980 C   0  0  0  0  0  0  0  0  0  0  0  0
  -44.3580   18.5240  -31.2790 C   0  0  0  0  0  3  0  0  0  0  0  0
  -45.2420   17.8550  -32.1700 C   0  0  0  0  0  0  0  0  0  0  0  0
  -44.8160   16.7380  -32.8250 N   0  0  0  0  0  0  0  0  0  0  0  0
  -43.5910   16.2340  -32.6550 N   0  0  0  0  0  0  0  0  0  0  0  0
  -42.7280   16.8460  -31.8220 C   0  0  0  0  0  0  0  0  0  0  0  0
  -41.4910   16.2460  -31.6620 N   0  0  0  0  0  0  0  0  0  0  0  0
  -41.0080   16.5880  -30.8410 H   0  0  0  0  0  0  0  0  0  0  0  0
  -41.4580   15.2440  -31.7820 H   0  0  0  0  0  0  0  0  0  0  0  0
  -46.6560   18.2970  -32.4350 C   0  0  0  0  0  0  0  0  0  0  0  0
  -47.5770   17.6030  -33.2870 C   0  0  0  0  0  0  0  0  0  0  0  0
  -48.8950   18.0670  -33.4720 C   0  0  0  0  0  3  0  0  0  0  0  0
  -49.3450   19.2260  -32.8260 C   0  0  0  0  0  3  0  0  0  0  0  0
  -48.4650   19.9320  -31.9930 C   0  0  0  0  0  3  0  0  0  0  0  0
  -47.1480   19.4730  -31.8080 C   0  0  0  0  0  3  0  0  0  0  0  0
  -47.2530   16.4630  -33.9670 O   0  0  0  0  0  0  0  0  0  0  0  0
  -46.3400   16.2270  -33.8020 H   0  0  0  0  0  0  0  0  0  0  0  0
  1  2  1  0
  1 41  1  0
  2  3  1  0
  3  4  2  0
  4 10  1  0
  5  7  2  0
  6  5  1  0
  6  2  2  0
  7  4  1  0
  8 13  1  0
  8 11  1  0
  9 11  2  0
 10 12  1  0
 10  8  2  0
 12  9  1  0
 14  6  1  0
 15 16  2  0
 15 17  1  0
 17 14  1  0
 18 17  1  0
 19 23  2  0
 19 22  1  0
 20 24  1  0
 20 15  1  0
 21 22  1  0
 21 25  1  0
 22 20  1  0
 25 26  1  0
 25 24  1  0
 27 26  1  0
 28 32  1  0
 28 19  1  0
 32 30  1  6
 32 31  1  0
 32 29  1  0
 33 36  1  0
 33 28  1  0
 34 33  1  0
 35 34  2  0
 37 38  1  1
 37 34  1  0
 39 40  1  0
 39 37  1  0
 40 37  1  0
 42 44  2  0
 44 41  1  0
 44 43  1  0
 45 54  1  0
 46 47  1  0
 47 51  1  0
 50 62  1  0
 50 52  1  0
 50 46  1  0
 51 48  1  0
 51 49  1  0
 52 48  1  0
 52 55  1  0
 53 42  1  0
 53 45  2  0
 54 43  2  0
 55 45  1  0
 55 49  1  0
 56 61  1  0
 56 62  1  0
 57 56  1  0
 58 59  1  0
 58 57  1  0
 59 60  1  0
 60 61  1  0
 63 62  2  0
 64 59  1  0
 65 64  1  0
 66 65  2  0
 67 68  2  0
 67 66  1  0
 68 69  1  0
 69 70  1  0
 69 64  2  0
 70 71  1  0
 72 70  1  0
 73 66  1  0
 73 78  1  0
 74 73  2  0
 75 74  1  0
 75 76  2  0
 76 77  1  0
 77 78  2  0
 79 80  1  0
 79 74  1  0
M  ISO  4   1 101  41 101  56 100  62 100
M  END
>  <TORSDO>  (59) 
F 16

>  <SCORE>  (59) 
-14.861

>  <name>  (59) 
58

>  <ligand_id>  (59) 
58

>  <original_smiles>  (59) 
[H]Oc1c([H])c([H])c([H])c([H])c1-c1nnc(N([H])[H])c(N2C([H])([H])C([H])([H])N(C(=O)C3([H])C([H])([H])C([H])([H])C4([H])C([H])([H])N(c5nc([H])c(C([H])([H])Oc6c([H])c(-c7sc([H])nc7C([H])([H])[H])c([H])c([H])c6C([H])([H])N([H])C(=O)C6([H])N(C(=O)C([H])(N([H])C(=O)C7(F)C([H])([H])C7([H])[H])C(C([H])([H])[H])(C([H])([H])[H])C([H])([H])[H])C([H])([H])C([H])(O[H])C6([H])[H])c([H])n5)C3([H])C4([H])[H])C([H])([H])C2([H])[H])c1[H]

>  <smiles>  (59) 
[H]Oc1c([H])c([H])c([H])c([H])c1-c1nnc(N([H])[H])c(N2C([H])([H])C([H])([H])N(C(=O)C3([H])C([H])([H])C([H])([H])C4([H])C([H])([H])N(c5nc([H])c(C([H])([H])Oc6c([H])c(-c7sc([H])nc7C([H])([H])[H])c([H])c([H])c6C([H])([H])N([H])C(=O)C6([H])N(C(=O)C([H])(N([H])C(=O)C7(F)C([H])([H])C7([H])[H])C(C([H])([H])[H])(C([H])([H])[H])C([H])([H])[H])C([H])([H])C([H])(O[H])C6([H])[H])c([H])n5)C3([H])C4([H])[H])C([H])([H])C2([H])[H])c1[H]

$$$$
59:0:0
     RDKit          3D

 73 80  0  0  1  0  0  0  0  0999 V2000
  -37.4130   13.5960  -23.7650 C   0  0  0  0  0  0  0  0  0  0  0  0
  -36.7350   13.5260  -22.5160 C   0  0  0  0  0  3  0  0  0  0  0  0
  -35.4650   12.9010  -22.3870 C   0  0  0  0  0  0  0  0  0  0  0  0
  -35.5450   12.3740  -24.7710 C   0  0  0  0  0  3  0  0  0  0  0  0
  -36.8230   12.9690  -24.8930 C   0  0  0  0  0  0  0  0  0  0  0  0
  -34.8710   12.3520  -23.5410 C   0  0  0  0  0  3  0  0  0  0  0  0
  -35.2220   12.3180  -19.8780 C   0  0  0  0  0  0  0  0  0  0  0  0
  -33.0600   12.7240  -19.3350 C   0  0  0  0  0  3  0  0  0  0  0  0
  -34.7680   12.7770  -21.1000 C   0  0  0  0  0  0  0  0  0  0  0  0
  -34.2400   12.2970  -18.8840 N   0  0  0  0  0  0  0  0  0  0  0  0
  -33.0690   13.2050  -21.0190 S   0  0  0  0  0  0  0  0  0  0  0  0
  -36.5910   11.8320  -19.5220 C   0  0  0  0  0  1  0  0  0  0  0  0
  -37.5810   12.8650  -26.2180 C   0  0  0  0  0  2  0  0  0  0  0  0
  -36.1940   13.6800  -28.1000 C   0  0  0  0  0  0  0  0  0  0  0  0
  -36.4770   14.8720  -27.9400 O   0  0  0  0  0  0  0  0  0  0  0  0
  -36.7170   12.6910  -27.3730 N   0  0  0  0  0  0  0  0  0  0  0  0
  -36.4430   11.7440  -27.5960 H   0  0  0  0  0  0  0  0  0  0  0  0
  -36.1240   14.4160  -31.1200 C   0  0  0  0  0  0  0  0  0  0  0  0
  -35.1430   13.2490  -29.1340 C   0  0  0  0  0  3  0  0  0  0  0  0
  -33.6690   14.4770  -30.5980 C   0  0  0  0  0  2  0  0  0  0  0  0
  -35.0640   14.1170  -30.3230 N   0  0  0  0  0  0  0  0  0  0  0  0
  -37.2480   13.9410  -30.9120 O   0  0  0  0  0  0  0  0  0  0  0  0
  -33.7490   13.3010  -28.4900 C   0  0  0  0  0  2  0  0  0  0  0  0
  -32.8170   13.6590  -29.6290 C   0  0  0  0  0  3  0  0  0  0  0  0
  -32.3780   12.4860  -30.2950 O   0  0  0  0  0  0  0  0  0  0  0  0
  -33.1420   12.0160  -30.6150 H   0  0  0  0  0  0  0  0  0  0  0  0
  -35.9390   15.3390  -32.3520 C   0  0  0  0  0  3  0  0  0  0  0  0
  -36.7080   14.7480  -33.4600 N   0  0  0  0  0  0  0  0  0  0  0  0
  -36.2090   14.2010  -34.5770 C   0  0  0  0  0  0  0  0  0  0  0  0
  -35.0010   14.2120  -34.8290 O   0  0  0  0  0  0  0  0  0  0  0  0
  -37.7040   14.6400  -33.3130 H   0  0  0  0  0  0  0  0  0  0  0  0
  -37.2170   13.5740  -35.5030 C   0  0  1  0  0  0  0  0  0  0  0  0
  -38.4840   13.4550  -34.9540 F   0  0  0  0  0  0  0  0  0  0  0  0
  -37.1370   13.8530  -36.9860 C   0  0  0  0  0  2  0  0  0  0  0  0
  -36.7840   12.4820  -36.4560 C   0  0  0  0  0  2  0  0  0  0  0  0
  -35.6610   17.4400  -30.8800 C   0  0  0  0  0  1  0  0  0  0  0  0
  -35.9830   17.6810  -33.3280 C   0  0  0  0  0  1  0  0  0  0  0  0
  -37.9030   16.9720  -31.8830 C   0  0  0  0  0  1  0  0  0  0  0  0
  -36.3820   16.8270  -32.1040 C   0  0  1  0  0  0  0  0  0  0  0  0
  -38.6570   14.2130  -23.8590 O   0  0  0  0  0  0  0  0  0  0  0  0
  -38.0820   17.4430  -25.6390 C   0  0  0  0  0  3  0  0  0  0  0  0
  -37.9050   16.4120  -24.6870 C   0  0  0  0  0  3  0  0  0  0  0  0
  -40.1000   16.3590  -26.3490 C   0  0  0  0  0  3  0  0  0  0  0  0
  -39.1640   17.4000  -26.5530 C   0  0  0  0  0  0  0  0  0  0  0  0
  -38.8320   15.3560  -24.6410 C   0  0  0  0  0  0  0  0  0  0  0  0
  -39.9490   15.3760  -25.4140 N   0  0  0  0  0  0  0  0  0  0  0  0
  -40.1670   19.0150  -28.3300 N   0  0  0  0  0  0  0  0  0  0  0  0
  -40.0030   19.6630  -29.6630 C   0  0  0  0  0  2  0  0  0  0  0  0
  -41.2410   19.5290  -30.5910 C   0  0  0  0  0  2  0  0  0  0  0  0
  -42.2420   18.6100  -30.0520 N   0  0  0  0  0  0  0  0  0  0  0  0
  -42.6660   18.8400  -28.6710 C   0  0  0  0  0  2  0  0  0  0  0  0
  -41.4990   19.2730  -27.7360 C   0  0  0  0  0  2  0  0  0  0  0  0
  -39.1430   18.2770  -27.7680 C   0  0  0  0  0  3  0  0  0  0  0  0
  -37.9460   18.3120  -28.3870 N   0  0  0  0  0  0  0  0  0  0  0  0
  -37.1990   17.6940  -28.1060 H   0  0  0  0  0  0  0  0  0  0  0  0
  -37.7580   18.9650  -29.1330 H   0  0  0  0  0  0  0  0  0  0  0  0
  -43.1440   18.0210  -30.9740 C   0  0  0  0  0  0  0  0  0  0  0  0
  -44.4500   18.5090  -31.2070 C   0  0  0  0  0  3  0  0  0  0  0  0
  -45.2900   17.8320  -32.1360 C   0  0  0  0  0  0  0  0  0  0  0  0
  -44.8210   16.7270  -32.7840 N   0  0  0  0  0  0  0  0  0  0  0  0
  -43.5940   16.2450  -32.5690 N   0  0  0  0  0  0  0  0  0  0  0  0
  -42.7740   16.8640  -31.6980 C   0  0  0  0  0  0  0  0  0  0  0  0
  -41.5380   16.2750  -31.4990 N   0  0  0  0  0  0  0  0  0  0  0  0
  -41.0960   16.5890  -30.6450 H   0  0  0  0  0  0  0  0  0  0  0  0
  -41.4930   15.2790  -31.6520 H   0  0  0  0  0  0  0  0  0  0  0  0
  -46.7010   18.2480  -32.4570 C   0  0  0  0  0  0  0  0  0  0  0  0
  -47.5910   17.5200  -33.3160 C   0  0  0  0  0  0  0  0  0  0  0  0
  -48.9080   17.9630  -33.5510 C   0  0  0  0  0  3  0  0  0  0  0  0
  -49.3890   19.1350  -32.9500 C   0  0  0  0  0  3  0  0  0  0  0  0
  -48.5410   19.8740  -32.1140 C   0  0  0  0  0  3  0  0  0  0  0  0
  -47.2240   19.4350  -31.8780 C   0  0  0  0  0  3  0  0  0  0  0  0
  -47.2360   16.3650  -33.9560 O   0  0  0  0  0  0  0  0  0  0  0  0
  -46.3240   16.1430  -33.7630 H   0  0  0  0  0  0  0  0  0  0  0  0
  1  2  1  0
  2  3  2  0
  3  9  1  0
  4  6  2  0
  5  4  1  0
  5  1  2  0
  6  3  1  0
  7 12  1  0
  7 10  1  0
  8 10  2  0
  9 11  1  0
  9  7  2  0
 11  8  1  0
 13  5  1  0
 14 15  2  0
 14 16  1  0
 16 13  1  0
 17 16  1  0
 18 22  2  0
 18 21  1  0
 19 23  1  0
 19 14  1  0
 20 21  1  0
 20 24  1  0
 21 19  1  0
 24 25  1  0
 24 23  1  0
 26 25  1  0
 27 39  1  0
 27 18  1  0
 28 31  1  0
 28 27  1  0
 29 28  1  0
 30 29  2  0
 32 33  1  1
 32 29  1  0
 34 35  1  0
 34 32  1  0
 35 32  1  0
 39 37  1  6
 39 38  1  0
 39 36  1  0
 40  1  1  0
 41 42  2  0
 42 45  1  0
 43 46  1  0
 44 43  2  0
 44 41  1  0
 45 40  1  0
 46 45  2  0
 47 53  1  0
 47 52  1  0
 48 47  1  0
 49 50  1  0
 49 48  1  0
 50 51  1  0
 51 52  1  0
 53 54  1  0
 53 44  1  0
 54 55  1  0
 56 54  1  0
 57 50  1  0
 58 57  1  0
 59 58  2  0
 60 61  2  0
 60 59  1  0
 61 62  1  0
 62 63  1  0
 62 57  2  0
 63 64  1  0
 65 63  1  0
 66 59  1  0
 66 71  1  0
 67 66  2  0
 68 67  1  0
 68 69  2  0
 69 70  1  0
 70 71  2  0
 72 73  1  0
 72 67  1  0
M  ISO  4  40 101  45 101  47 100  53 100
M  END
>  <TORSDO>  (60) 
F 15

>  <SCORE>  (60) 
-14.811

>  <name>  (60) 
59

>  <ligand_id>  (60) 
59

>  <original_smiles>  (60) 
[H]Oc1c([H])c([H])c([H])c([H])c1-c1nnc(N([H])[H])c(N2C([H])([H])C([H])([H])N(C(c3c([H])nc(Oc4c([H])c(-c5sc([H])nc5C([H])([H])[H])c([H])c([H])c4C([H])([H])N([H])C(=O)C4([H])N(C(=O)C([H])(N([H])C(=O)C5(F)C([H])([H])C5([H])[H])C(C([H])([H])[H])(C([H])([H])[H])C([H])([H])[H])C([H])([H])C([H])(O[H])C4([H])[H])c([H])c3[H])=[N+]([H])[H])C([H])([H])C2([H])[H])c1[H]

>  <smiles>  (60) 
[H]Oc1c([H])c([H])c([H])c([H])c1-c1nnc(N([H])[H])c(N2C([H])([H])C([H])([H])N(C(c3c([H])nc(Oc4c([H])c(-c5sc([H])nc5C([H])([H])[H])c([H])c([H])c4C([H])([H])N([H])C(=O)C4([H])N(C(=O)C([H])(N([H])C(=O)C5(F)C([H])([H])C5([H])[H])C(C([H])([H])[H])(C([H])([H])[H])C([H])([H])[H])C([H])([H])C([H])(O[H])C4([H])[H])c([H])c3[H])=[N+]([H])[H])C([H])([H])C2([H])[H])c1[H]

$$$$
60:0:0
     RDKit          3D

 71 78  0  0  1  0  0  0  0  0999 V2000
  -37.3830   13.5590  -23.7370 C   0  0  0  0  0  0  0  0  0  0  0  0
  -36.7120   13.4880  -22.4900 C   0  0  0  0  0  3  0  0  0  0  0  0
  -35.4600   12.8390  -22.3540 C   0  0  0  0  0  0  0  0  0  0  0  0
  -35.5500   12.2820  -24.7300 C   0  0  0  0  0  3  0  0  0  0  0  0
  -36.8160   12.9000  -24.8630 C   0  0  0  0  0  0  0  0  0  0  0  0
  -34.8780   12.2640  -23.5000 C   0  0  0  0  0  3  0  0  0  0  0  0
  -35.2500   12.3000  -19.8360 C   0  0  0  0  0  0  0  0  0  0  0  0
  -33.0790   12.6510  -19.2890 C   0  0  0  0  0  3  0  0  0  0  0  0
  -34.7740   12.7210  -21.0620 C   0  0  0  0  0  0  0  0  0  0  0  0
  -34.2740   12.2660  -18.8370 N   0  0  0  0  0  0  0  0  0  0  0  0
  -33.0660   13.1030  -20.9810 S   0  0  0  0  0  0  0  0  0  0  0  0
  -36.6360   11.8630  -19.4790 C   0  0  0  0  0  1  0  0  0  0  0  0
  -37.5720   12.7440  -26.1890 C   0  0  0  0  0  2  0  0  0  0  0  0
  -36.1970   13.6450  -28.0600 C   0  0  0  0  0  0  0  0  0  0  0  0
  -36.4860   14.8290  -27.8740 O   0  0  0  0  0  0  0  0  0  0  0  0
  -36.7090   12.6350  -27.3520 N   0  0  0  0  0  0  0  0  0  0  0  0
  -36.4210   11.6990  -27.6070 H   0  0  0  0  0  0  0  0  0  0  0  0
  -36.1410   14.4090  -31.0780 C   0  0  0  0  0  0  0  0  0  0  0  0
  -35.1460   13.2360  -29.1030 C   0  0  0  0  0  3  0  0  0  0  0  0
  -33.6830   14.4730  -30.5680 C   0  0  0  0  0  2  0  0  0  0  0  0
  -35.0780   14.1100  -30.2870 N   0  0  0  0  0  0  0  0  0  0  0  0
  -37.2620   13.9300  -30.8680 O   0  0  0  0  0  0  0  0  0  0  0  0
  -33.7500   13.2910  -28.4630 C   0  0  0  0  0  2  0  0  0  0  0  0
  -32.8240   13.6530  -29.6060 C   0  0  0  0  0  3  0  0  0  0  0  0
  -32.3860   12.4840  -30.2790 O   0  0  0  0  0  0  0  0  0  0  0  0
  -33.1510   12.0140  -30.5970 H   0  0  0  0  0  0  0  0  0  0  0  0
  -35.9600   15.3340  -32.3100 C   0  0  0  0  0  3  0  0  0  0  0  0
  -36.7210   14.7350  -33.4210 N   0  0  0  0  0  0  0  0  0  0  0  0
  -36.2140   14.1940  -34.5370 C   0  0  0  0  0  0  0  0  0  0  0  0
  -35.0060   14.2130  -34.7850 O   0  0  0  0  0  0  0  0  0  0  0  0
  -37.7150   14.6200  -33.2760 H   0  0  0  0  0  0  0  0  0  0  0  0
  -37.2150   13.5600  -35.4670 C   0  0  1  0  0  0  0  0  0  0  0  0
  -38.4820   13.4280  -34.9210 F   0  0  0  0  0  0  0  0  0  0  0  0
  -37.1330   13.8410  -36.9490 C   0  0  0  0  0  2  0  0  0  0  0  0
  -36.7710   12.4720  -36.4210 C   0  0  0  0  0  2  0  0  0  0  0  0
  -35.7330   17.4340  -30.8200 C   0  0  0  0  0  1  0  0  0  0  0  0
  -36.0060   17.6790  -33.2750 C   0  0  0  0  0  1  0  0  0  0  0  0
  -37.9460   16.9470  -31.8720 C   0  0  0  0  0  1  0  0  0  0  0  0
  -36.4200   16.8170  -32.0630 C   0  0  1  0  0  0  0  0  0  0  0  0
  -38.5810   14.2470  -23.8080 O   0  0  0  0  0  0  0  0  0  0  0  0
  -38.2960   17.7410  -25.3560 C   0  0  0  0  0  2  0  0  0  0  0  0
  -39.9050   16.2620  -26.7200 C   0  0  0  0  0  2  0  0  0  0  0  0
  -38.4120   16.7280  -24.1870 C   0  0  0  0  0  2  0  0  0  0  0  0
  -39.9850   15.3330  -25.4960 C   0  0  0  0  0  2  0  0  0  0  0  0
  -39.4900   17.7160  -26.3700 C   0  0  0  0  0  3  0  0  0  0  0  0
  -38.6330   15.3250  -24.7620 C   0  0  0  0  0  3  0  0  0  0  0  0
  -40.0880   19.1080  -28.4250 N   0  0  0  0  0  0  0  0  0  0  0  0
  -39.8380   19.4840  -29.8340 C   0  0  0  0  0  2  0  0  0  0  0  0
  -41.1120   19.4670  -30.7260 C   0  0  0  0  0  2  0  0  0  0  0  0
  -42.1530   18.6080  -30.1650 N   0  0  0  0  0  0  0  0  0  0  0  0
  -42.5400   18.8360  -28.7740 C   0  0  0  0  0  2  0  0  0  0  0  0
  -41.4200   19.5300  -27.9670 C   0  0  0  0  0  2  0  0  0  0  0  0
  -39.1440   18.4520  -27.6990 C   0  0  0  0  0  0  0  0  0  0  0  0
  -37.9870   18.3590  -28.1210 O   0  0  0  0  0  0  0  0  0  0  0  0
  -43.0890   18.0260  -31.0510 C   0  0  0  0  0  0  0  0  0  0  0  0
  -44.3890   18.5390  -31.2440 C   0  0  0  0  0  3  0  0  0  0  0  0
  -45.2740   17.8700  -32.1360 C   0  0  0  0  0  0  0  0  0  0  0  0
  -44.8490   16.7480  -32.7840 N   0  0  0  0  0  0  0  0  0  0  0  0
  -43.6260   16.2400  -32.6040 N   0  0  0  0  0  0  0  0  0  0  0  0
  -42.7640   16.8530  -31.7680 C   0  0  0  0  0  0  0  0  0  0  0  0
  -41.5350   16.2420  -31.5980 N   0  0  0  0  0  0  0  0  0  0  0  0
  -41.0530   16.5840  -30.7760 H   0  0  0  0  0  0  0  0  0  0  0  0
  -41.5180   15.2390  -31.7080 H   0  0  0  0  0  0  0  0  0  0  0  0
  -46.6840   18.3150  -32.4110 C   0  0  0  0  0  0  0  0  0  0  0  0
  -47.6120   17.6080  -33.2460 C   0  0  0  0  0  0  0  0  0  0  0  0
  -48.9260   18.0790  -33.4410 C   0  0  0  0  0  3  0  0  0  0  0  0
  -49.3660   19.2580  -32.8240 C   0  0  0  0  0  3  0  0  0  0  0  0
  -48.4800   19.9760  -32.0100 C   0  0  0  0  0  3  0  0  0  0  0  0
  -47.1660   19.5100  -31.8140 C   0  0  0  0  0  3  0  0  0  0  0  0
  -47.2990   16.4480  -33.8990 O   0  0  0  0  0  0  0  0  0  0  0  0
  -46.3870   16.2070  -33.7320 H   0  0  0  0  0  0  0  0  0  0  0  0
  1  2  1  0
  2  3  2  0
  3  9  1  0
  4  6  2  0
  5  4  1  0
  5  1  2  0
  6  3  1  0
  7 12  1  0
  7 10  1  0
  8 10  2  0
  9 11  1  0
  9  7  2  0
 11  8  1  0
 13  5  1  0
 14 15  2  0
 14 16  1  0
 16 13  1  0
 17 16  1  0
 18 22  2  0
 18 21  1  0
 19 23  1  0
 19 14  1  0
 20 21  1  0
 20 24  1  0
 21 19  1  0
 24 25  1  0
 24 23  1  0
 26 25  1  0
 27 39  1  0
 27 18  1  0
 28 31  1  0
 28 27  1  0
 29 28  1  0
 30 29  2  0
 32 33  1  1
 32 29  1  0
 34 35  1  0
 34 32  1  0
 35 32  1  0
 39 37  1  6
 39 38  1  0
 39 36  1  0
 40  1  1  0
 41 43  1  0
 42 45  1  0
 42 44  1  0
 44 46  1  0
 45 53  1  0
 45 41  1  0
 46 43  1  0
 46 40  1  0
 47 52  1  0
 47 53  1  0
 48 47  1  0
 49 50  1  0
 49 48  1  0
 50 51  1  0
 51 52  1  0
 54 53  2  0
 55 50  1  0
 56 55  1  0
 57 56  2  0
 58 59  2  0
 58 57  1  0
 59 60  1  0
 60 61  1  0
 60 55  2  0
 61 62  1  0
 63 61  1  0
 64 57  1  0
 64 69  1  0
 65 64  2  0
 66 65  1  0
 66 67  2  0
 67 68  1  0
 68 69  2  0
 70 71  1  0
 70 65  1  0
M  ISO  4  40 101  46 101  47 100  53 100
M  END
>  <TORSDO>  (61) 
F 15

>  <SCORE>  (61) 
-14.755

>  <name>  (61) 
60

>  <ligand_id>  (61) 
60

>  <original_smiles>  (61) 
[H]Oc1c([H])c([H])c([H])c([H])c1-c1nnc(N([H])[H])c(N2C([H])([H])C([H])([H])N(C(=O)C3([H])C([H])([H])C([H])([H])C([H])(Oc4c([H])c(-c5sc([H])nc5C([H])([H])[H])c([H])c([H])c4C([H])([H])N([H])C(=O)C4([H])N(C(=O)C([H])(N([H])C(=O)C5(F)C([H])([H])C5([H])[H])C(C([H])([H])[H])(C([H])([H])[H])C([H])([H])[H])C([H])([H])C([H])(O[H])C4([H])[H])C([H])([H])C3([H])[H])C([H])([H])C2([H])[H])c1[H]

>  <smiles>  (61) 
[H]Oc1c([H])c([H])c([H])c([H])c1-c1nnc(N([H])[H])c(N2C([H])([H])C([H])([H])N(C(=O)C3([H])C([H])([H])C([H])([H])C([H])(Oc4c([H])c(-c5sc([H])nc5C([H])([H])[H])c([H])c([H])c4C([H])([H])N([H])C(=O)C4([H])N(C(=O)C([H])(N([H])C(=O)C5(F)C([H])([H])C5([H])[H])C(C([H])([H])[H])(C([H])([H])[H])C([H])([H])[H])C([H])([H])C([H])(O[H])C4([H])[H])C([H])([H])C3([H])[H])C([H])([H])C2([H])[H])c1[H]

$$$$
61:0:0
     RDKit          3D

 76 84  0  0  1  0  0  0  0  0999 V2000
  -37.3350   13.3920  -23.6650 C   0  0  0  0  0  0  0  0  0  0  0  0
  -36.6440   13.3260  -22.4460 C   0  0  0  0  0  3  0  0  0  0  0  0
  -35.3420   12.8090  -22.3820 C   0  0  0  0  0  0  0  0  0  0  0  0
  -35.4400   12.3980  -24.7980 C   0  0  0  0  0  3  0  0  0  0  0  0
  -36.7540   12.9150  -24.8580 C   0  0  0  0  0  0  0  0  0  0  0  0
  -34.7440   12.3550  -23.5770 C   0  0  0  0  0  3  0  0  0  0  0  0
  -35.1120   12.2520  -19.8790 C   0  0  0  0  0  0  0  0  0  0  0  0
  -32.9650   12.7150  -19.3250 C   0  0  0  0  0  3  0  0  0  0  0  0
  -34.6490   12.7070  -21.1000 C   0  0  0  0  0  0  0  0  0  0  0  0
  -34.1360   12.2570  -18.8800 N   0  0  0  0  0  0  0  0  0  0  0  0
  -32.9730   13.1950  -21.0110 S   0  0  0  0  0  0  0  0  0  0  0  0
  -36.4730   11.7400  -19.5220 C   0  0  0  0  0  1  0  0  0  0  0  0
  -37.5500   12.9310  -26.1630 C   0  0  0  0  0  2  0  0  0  0  0  0
  -36.1950   13.6930  -28.0950 C   0  0  0  0  0  0  0  0  0  0  0  0
  -36.4600   14.8860  -27.9360 O   0  0  0  0  0  0  0  0  0  0  0  0
  -36.7310   12.7210  -27.3500 N   0  0  0  0  0  0  0  0  0  0  0  0
  -36.4890   11.7640  -27.5700 H   0  0  0  0  0  0  0  0  0  0  0  0
  -36.1410   14.4200  -31.1190 C   0  0  0  0  0  0  0  0  0  0  0  0
  -35.1570   13.2470  -29.1390 C   0  0  0  0  0  3  0  0  0  0  0  0
  -33.6840   14.4720  -30.6160 C   0  0  0  0  0  2  0  0  0  0  0  0
  -35.0790   14.1150  -30.3290 N   0  0  0  0  0  0  0  0  0  0  0  0
  -37.2660   13.9510  -30.9050 O   0  0  0  0  0  0  0  0  0  0  0  0
  -33.7550   13.2880  -28.5090 C   0  0  0  0  0  2  0  0  0  0  0  0
  -32.8300   13.6530  -29.6510 C   0  0  0  0  0  3  0  0  0  0  0  0
  -32.3890   12.4830  -30.3250 O   0  0  0  0  0  0  0  0  0  0  0  0
  -33.1550   12.0120  -30.6370 H   0  0  0  0  0  0  0  0  0  0  0  0
  -35.9620   15.3460  -32.3500 C   0  0  0  0  0  3  0  0  0  0  0  0
  -36.7170   14.7440  -33.4620 N   0  0  0  0  0  0  0  0  0  0  0  0
  -36.2040   14.2120  -34.5810 C   0  0  0  0  0  0  0  0  0  0  0  0
  -34.9960   14.2460  -34.8280 O   0  0  0  0  0  0  0  0  0  0  0  0
  -37.7090   14.6140  -33.3180 H   0  0  0  0  0  0  0  0  0  0  0  0
  -37.1960   13.5680  -35.5110 C   0  0  1  0  0  0  0  0  0  0  0  0
  -38.4610   13.4170  -34.9650 F   0  0  0  0  0  0  0  0  0  0  0  0
  -37.1180   13.8560  -36.9920 C   0  0  0  0  0  2  0  0  0  0  0  0
  -36.7360   12.4890  -36.4680 C   0  0  0  0  0  2  0  0  0  0  0  0
  -35.7700   17.4410  -30.8450 C   0  0  0  0  0  1  0  0  0  0  0  0
  -35.9940   17.6980  -33.3050 C   0  0  0  0  0  1  0  0  0  0  0  0
  -37.9600   16.9550  -31.9420 C   0  0  0  0  0  1  0  0  0  0  0  0
  -36.4300   16.8290  -32.1050 C   0  0  1  0  0  0  0  0  0  0  0  0
  -38.5800   13.9310  -23.6620 O   0  0  0  0  0  0  0  0  0  0  0  0
  -39.9010   15.7970  -24.0850 C   0  0  0  0  0  3  0  0  0  0  0  0
  -37.5850   16.2000  -23.4740 C   0  0  0  0  0  3  0  0  0  0  0  0
  -39.9200   17.1360  -24.4720 C   0  0  0  0  0  0  0  0  0  0  0  0
  -38.6650   15.2940  -23.6900 C   0  0  0  0  0  0  0  0  0  0  0  0
  -38.8040   17.9370  -24.2860 C   0  0  0  0  0  0  0  0  0  0  0  0
  -38.9380   19.2450  -24.9890 C   0  0  0  0  0  2  0  0  0  0  0  0
  -40.1250   18.9830  -25.9600 C   0  0  0  0  0  3  0  0  0  0  0  0
  -40.9300   17.7330  -25.3980 C   0  0  2  0  0  0  0  0  0  0  0  0
  -42.1690   18.1650  -24.5760 C   0  0  0  0  0  1  0  0  0  0  0  0
  -41.3360   16.6280  -26.4220 C   0  0  0  0  0  1  0  0  0  0  0  0
  -37.6500   17.5240  -23.7420 N   0  0  0  0  0  0  0  0  0  0  0  0
  -40.4980   19.1680  -28.4240 N   0  0  0  0  0  0  0  0  0  0  0  0
  -40.1010   19.2700  -29.8440 C   0  0  0  0  0  2  0  0  0  0  0  0
  -41.3090   19.3240  -30.8180 C   0  0  0  0  0  2  0  0  0  0  0  0
  -42.4260   18.5510  -30.2870 N   0  0  0  0  0  0  0  0  0  0  0  0
  -42.9440   18.9910  -29.0080 C   0  0  0  0  0  2  0  0  0  0  0  0
  -41.8570   19.6590  -28.1530 C   0  0  0  0  0  2  0  0  0  0  0  0
  -39.6460   18.8250  -27.4350 C   0  0  0  0  0  0  0  0  0  0  0  0
  -38.5020   18.4310  -27.6800 O   0  0  0  0  0  0  0  0  0  0  0  0
  -43.3480   17.9980  -31.1990 C   0  0  0  0  0  0  0  0  0  0  0  0
  -44.6530   18.5040  -31.3730 C   0  0  0  0  0  3  0  0  0  0  0  0
  -45.5320   17.8530  -32.2780 C   0  0  0  0  0  0  0  0  0  0  0  0
  -45.0970   16.7600  -32.9640 N   0  0  0  0  0  0  0  0  0  0  0  0
  -43.8660   16.2620  -32.8050 N   0  0  0  0  0  0  0  0  0  0  0  0
  -43.0100   16.8520  -31.9500 C   0  0  0  0  0  0  0  0  0  0  0  0
  -41.7740   16.2510  -31.7930 N   0  0  0  0  0  0  0  0  0  0  0  0
  -41.3150   16.5750  -30.9500 H   0  0  0  0  0  0  0  0  0  0  0  0
  -41.7400   15.2500  -31.9340 H   0  0  0  0  0  0  0  0  0  0  0  0
  -46.9460   18.3020  -32.5270 C   0  0  0  0  0  0  0  0  0  0  0  0
  -47.8760   17.6110  -33.3720 C   0  0  0  0  0  0  0  0  0  0  0  0
  -49.1940   18.0780  -33.5470 C   0  0  0  0  0  3  0  0  0  0  0  0
  -49.6360   19.2380  -32.8930 C   0  0  0  0  0  3  0  0  0  0  0  0
  -48.7520   19.9380  -32.0630 C   0  0  0  0  0  3  0  0  0  0  0  0
  -47.4350   19.4750  -31.8880 C   0  0  0  0  0  3  0  0  0  0  0  0
  -47.5560   16.4740  -34.0580 O   0  0  0  0  0  0  0  0  0  0  0  0
  -46.6430   16.2320  -33.9010 H   0  0  0  0  0  0  0  0  0  0  0  0
  1 40  1  0
  1  2  1  0
  2  3  2  0
  3  9  1  0
  4  6  2  0
  5  4  1  0
  5  1  2  0
  6  3  1  0
  7 12  1  0
  7 10  1  0
  8 10  2  0
  9 11  1  0
  9  7  2  0
 11  8  1  0
 13  5  1  0
 14 15  2  0
 14 16  1  0
 16 13  1  0
 17 16  1  0
 18 22  2  0
 18 21  1  0
 19 23  1  0
 19 14  1  0
 20 21  1  0
 20 24  1  0
 21 19  1  0
 24 25  1  0
 24 23  1  0
 26 25  1  0
 27 39  1  0
 27 18  1  0
 28 31  1  0
 28 27  1  0
 29 28  1  0
 30 29  2  0
 32 33  1  1
 32 29  1  0
 34 35  1  0
 34 32  1  0
 35 32  1  0
 39 37  1  6
 39 38  1  0
 39 36  1  0
 41 44  1  0
 43 45  1  0
 43 41  2  0
 44 40  1  0
 44 42  2  0
 45 51  2  0
 46 45  1  0
 47 58  1  0
 47 48  1  0
 47 46  1  0
 48 49  1  1
 48 43  1  0
 50 48  1  0
 51 42  1  0
 52 57  1  0
 52 58  1  0
 53 52  1  0
 54 55  1  0
 54 53  1  0
 55 56  1  0
 56 57  1  0
 59 58  2  0
 60 55  1  0
 61 60  1  0
 62 61  2  0
 63 64  2  0
 63 62  1  0
 64 65  1  0
 65 66  1  0
 65 60  2  0
 66 67  1  0
 68 66  1  0
 69 62  1  0
 69 74  1  0
 70 69  2  0
 71 70  1  0
 71 72  2  0
 72 73  1  0
 73 74  2  0
 75 76  1  0
 75 70  1  0
M  ISO  4  40 101  44 101  52 100  58 100
M  END
>  <TORSDO>  (62) 
F 15

>  <SCORE>  (62) 
-15.127

>  <name>  (62) 
61

>  <ligand_id>  (62) 
61

>  <original_smiles>  (62) 
[H]Oc1c([H])c([H])c([H])c([H])c1-c1nnc(N([H])[H])c(N2C([H])([H])C([H])([H])N(C(=O)C3([H])C([H])([H])c4nc([H])c(Oc5c([H])c(-c6sc([H])nc6C([H])([H])[H])c([H])c([H])c5C([H])([H])N([H])C(=O)C5([H])N(C(=O)C([H])(N([H])C(=O)C6(F)C([H])([H])C6([H])[H])C(C([H])([H])[H])(C([H])([H])[H])C([H])([H])[H])C([H])([H])C([H])(O[H])C5([H])[H])c([H])c4C3(C([H])([H])[H])C([H])([H])[H])C([H])([H])C2([H])[H])c1[H]

>  <smiles>  (62) 
[H]Oc1c([H])c([H])c([H])c([H])c1-c1nnc(N([H])[H])c(N2C([H])([H])C([H])([H])N(C(=O)C3([H])C([H])([H])c4nc([H])c(Oc5c([H])c(-c6sc([H])nc6C([H])([H])[H])c([H])c([H])c5C([H])([H])N([H])C(=O)C5([H])N(C(=O)C([H])(N([H])C(=O)C6(F)C([H])([H])C6([H])[H])C(C([H])([H])[H])(C([H])([H])[H])C([H])([H])[H])C([H])([H])C([H])(O[H])C5([H])[H])c([H])c4C3(C([H])([H])[H])C([H])([H])[H])C([H])([H])C2([H])[H])c1[H]

$$$$
62:0:0
     RDKit          3D

 78 86  0  0  1  0  0  0  0  0999 V2000
  -37.4160   13.4630  -23.7100 C   0  0  0  0  0  0  0  0  0  0  0  0
  -36.7210   13.4000  -22.4860 C   0  0  0  0  0  3  0  0  0  0  0  0
  -35.4400   12.8200  -22.4070 C   0  0  0  0  0  0  0  0  0  0  0  0
  -35.5180   12.4170  -24.8190 C   0  0  0  0  0  3  0  0  0  0  0  0
  -36.8150   12.9730  -24.8940 C   0  0  0  0  0  0  0  0  0  0  0  0
  -34.8410   12.3420  -23.5910 C   0  0  0  0  0  3  0  0  0  0  0  0
  -35.2360   12.1830  -19.9210 C   0  0  0  0  0  0  0  0  0  0  0  0
  -33.0870   12.5950  -19.3380 C   0  0  0  0  0  3  0  0  0  0  0  0
  -34.7610   12.6710  -21.1220 C   0  0  0  0  0  0  0  0  0  0  0  0
  -34.2700   12.1460  -18.9140 N   0  0  0  0  0  0  0  0  0  0  0  0
  -33.0750   13.1200  -21.0100 S   0  0  0  0  0  0  0  0  0  0  0  0
  -36.6100   11.6810  -19.5950 C   0  0  0  0  0  1  0  0  0  0  0  0
  -37.5770   13.0070  -26.2190 C   0  0  0  0  0  2  0  0  0  0  0  0
  -36.1840   13.7410  -28.1330 C   0  0  0  0  0  0  0  0  0  0  0  0
  -36.4360   14.9370  -27.9820 O   0  0  0  0  0  0  0  0  0  0  0  0
  -36.7380   12.7800  -27.3900 N   0  0  0  0  0  0  0  0  0  0  0  0
  -36.4950   11.8220  -27.5990 H   0  0  0  0  0  0  0  0  0  0  0  0
  -36.1070   14.4490  -31.1580 C   0  0  0  0  0  0  0  0  0  0  0  0
  -35.1410   13.2810  -29.1660 C   0  0  0  0  0  3  0  0  0  0  0  0
  -33.6500   14.4850  -30.6400 C   0  0  0  0  0  2  0  0  0  0  0  0
  -35.0510   14.1400  -30.3620 N   0  0  0  0  0  0  0  0  0  0  0  0
  -37.2350   13.9870  -30.9490 O   0  0  0  0  0  0  0  0  0  0  0  0
  -33.7420   13.3180  -28.5250 C   0  0  0  0  0  2  0  0  0  0  0  0
  -32.8070   13.6640  -29.6670 C   0  0  0  0  0  3  0  0  0  0  0  0
  -32.3760   12.4850  -30.3290 O   0  0  0  0  0  0  0  0  0  0  0  0
  -33.1440   12.0200  -30.6480 H   0  0  0  0  0  0  0  0  0  0  0  0
  -35.9110   15.3650  -32.3970 C   0  0  0  0  0  3  0  0  0  0  0  0
  -35.6360   17.4690  -30.9230 C   0  0  0  0  0  1  0  0  0  0  0  0
  -35.9180   17.7040  -33.3760 C   0  0  0  0  0  1  0  0  0  0  0  0
  -37.8680   17.0160  -31.9570 C   0  0  0  0  0  1  0  0  0  0  0  0
  -36.3430   16.8580  -32.1560 C   0  0  1  0  0  0  0  0  0  0  0  0
  -36.6820   14.7730  -33.5020 N   0  0  0  0  0  0  0  0  0  0  0  0
  -36.1890   14.2210  -34.6190 C   0  0  0  0  0  0  0  0  0  0  0  0
  -34.9810   14.2250  -34.8740 O   0  0  0  0  0  0  0  0  0  0  0  0
  -37.6770   14.6630  -33.3520 H   0  0  0  0  0  0  0  0  0  0  0  0
  -37.2010   13.5950  -35.5410 C   0  0  1  0  0  0  0  0  0  0  0  0
  -38.4670   13.4800  -34.9880 F   0  0  0  0  0  0  0  0  0  0  0  0
  -37.1250   13.8720  -37.0250 C   0  0  0  0  0  2  0  0  0  0  0  0
  -36.7770   12.4990  -36.4970 C   0  0  0  0  0  2  0  0  0  0  0  0
  -38.6700   14.0070  -23.7330 O   0  0  0  0  0  0  0  0  0  0  0  0
  -40.1660   13.3800  -21.9010 C   0  0  0  0  0  1  0  0  0  0  0  0
  -39.7340   13.1280  -23.3530 C   0  0  0  0  0  3  0  0  0  0  0  0
  -42.0070   15.0680  -25.6310 C   0  0  0  0  0  3  0  0  0  0  0  0
  -41.3820   12.9620  -26.6920 C   0  0  0  0  0  3  0  0  0  0  0  0
  -41.4980   14.5990  -24.4090 C   0  0  0  0  0  3  0  0  0  0  0  0
  -40.9080   12.4780  -25.4650 C   0  0  0  0  0  3  0  0  0  0  0  0
  -41.7830   14.3100  -26.8000 C   0  0  0  0  0  0  0  0  0  0  0  0
  -40.8260   13.3580  -24.3710 C   0  0  0  0  0  0  0  0  0  0  0  0
  -39.8910   16.6280  -27.6350 C   0  0  0  0  0  0  0  0  0  0  0  0
  -40.5310   14.6820  -28.9850 C   0  0  0  0  0  2  0  0  0  0  0  0
  -41.7460   14.9490  -28.1520 C   0  0  0  0  0  3  0  0  0  0  0  0
  -40.7700   15.9820  -28.4370 N   0  0  0  0  0  0  0  0  0  0  0  0
  -39.4490   16.2220  -26.5540 O   0  0  0  0  0  0  0  0  0  0  0  0
  -40.1070   18.9760  -28.4960 N   0  0  0  0  0  0  0  0  0  0  0  0
  -39.9300   19.7080  -29.7550 C   0  0  0  0  0  2  0  0  0  0  0  0
  -41.1430   19.5030  -30.7060 C   0  0  0  0  0  2  0  0  0  0  0  0
  -42.1410   18.5790  -30.1590 N   0  0  0  0  0  0  0  0  0  0  0  0
  -42.5670   18.7760  -28.7740 C   0  0  0  0  0  2  0  0  0  0  0  0
  -41.4080   19.2840  -27.8810 C   0  0  0  0  0  2  0  0  0  0  0  0
  -39.2940   17.9200  -28.2550 C   0  0  0  0  0  0  0  0  0  0  0  0
  -38.1120   17.8910  -28.6180 O   0  0  0  0  0  0  0  0  0  0  0  0
  -43.0400   17.9730  -31.0650 C   0  0  0  0  0  0  0  0  0  0  0  0
  -44.3660   18.4200  -31.2430 C   0  0  0  0  0  3  0  0  0  0  0  0
  -45.2010   17.7530  -32.1810 C   0  0  0  0  0  0  0  0  0  0  0  0
  -44.7090   16.6940  -32.8850 N   0  0  0  0  0  0  0  0  0  0  0  0
  -43.4610   16.2520  -32.7230 N   0  0  0  0  0  0  0  0  0  0  0  0
  -42.6440   16.8650  -31.8470 C   0  0  0  0  0  0  0  0  0  0  0  0
  -41.3670   16.3500  -31.7430 N   0  0  0  0  0  0  0  0  0  0  0  0
  -40.7240   16.9810  -31.2880 H   0  0  0  0  0  0  0  0  0  0  0  0
  -41.0070   15.8870  -32.5650 H   0  0  0  0  0  0  0  0  0  0  0  0
  -46.6300   18.1360  -32.4530 C   0  0  0  0  0  0  0  0  0  0  0  0
  -47.5100   17.4190  -33.3280 C   0  0  0  0  0  0  0  0  0  0  0  0
  -48.8450   17.8280  -33.5190 C   0  0  0  0  0  3  0  0  0  0  0  0
  -49.3520   18.9550  -32.8550 C   0  0  0  0  0  3  0  0  0  0  0  0
  -48.5130   19.6830  -32.0020 C   0  0  0  0  0  3  0  0  0  0  0  0
  -47.1790   19.2770  -31.8110 C   0  0  0  0  0  3  0  0  0  0  0  0
  -47.1300   16.3070  -34.0280 O   0  0  0  0  0  0  0  0  0  0  0  0
  -46.2070   16.1090  -33.8610 H   0  0  0  0  0  0  0  0  0  0  0  0
  1  2  1  0
  2  3  2  0
  3  9  1  0
  4  6  2  0
  5  4  1  0
  5  1  2  0
  6  3  1  0
  7 12  1  0
  7 10  1  0
  8 10  2  0
  9 11  1  0
  9  7  2  0
 11  8  1  0
 13  5  1  0
 14 15  2  0
 14 16  1  0
 16 13  1  0
 17 16  1  0
 18 22  2  0
 18 21  1  0
 19 23  1  0
 19 14  1  0
 20 21  1  0
 20 24  1  0
 21 19  1  0
 24 25  1  0
 24 23  1  0
 26 25  1  0
 27 31  1  0
 27 18  1  0
 31 29  1  6
 31 30  1  0
 31 28  1  0
 32 35  1  0
 32 27  1  0
 33 32  1  0
 34 33  2  0
 36 37  1  1
 36 33  1  0
 38 39  1  0
 38 36  1  0
 39 36  1  0
 40  1  1  0
 40 42  1  0
 42 41  1  0
 43 45  1  0
 44 46  2  0
 45 48  2  0
 46 48  1  0
 47 44  1  0
 47 43  2  0
 48 42  1  0
 49 53  2  0
 50 52  1  0
 50 51  1  0
 51 47  1  0
 52 51  1  0
 52 49  1  0
 54 60  1  0
 54 59  1  0
 55 54  1  0
 56 57  1  0
 56 55  1  0
 57 58  1  0
 58 59  1  0
 60 49  1  0
 61 60  2  0
 62 57  1  0
 63 62  1  0
 64 63  2  0
 65 66  2  0
 65 64  1  0
 66 67  1  0
 67 68  1  0
 67 62  2  0
 68 69  1  0
 70 68  1  0
 71 64  1  0
 71 76  1  0
 72 71  2  0
 73 72  1  0
 73 74  2  0
 74 75  1  0
 75 76  2  0
 77 78  1  0
 77 72  1  0
M  ISO  4  40 101  42 101  54 100  60 100
M  END
>  <TORSDO>  (63) 
F 17

>  <SCORE>  (63) 
-14.829

>  <name>  (63) 
62

>  <ligand_id>  (63) 
62

>  <original_smiles>  (63) 
[H]Oc1c([H])c([H])c([H])c([H])c1-c1nnc(N([H])[H])c(N2C([H])([H])C([H])([H])N(C(=O)C(=O)N3C([H])([H])C3([H])c3c([H])c([H])c(C([H])(Oc4c([H])c(-c5sc([H])nc5C([H])([H])[H])c([H])c([H])c4C([H])([H])N([H])C(=O)C4([H])N(C(=O)C([H])(N([H])C(=O)C5(F)C([H])([H])C5([H])[H])C(C([H])([H])[H])(C([H])([H])[H])C([H])([H])[H])C([H])([H])C([H])(O[H])C4([H])[H])C([H])([H])[H])c([H])c3[H])C([H])([H])C2([H])[H])c1[H]

>  <smiles>  (63) 
[H]Oc1c([H])c([H])c([H])c([H])c1-c1nnc(N([H])[H])c(N2C([H])([H])C([H])([H])N(C(=O)C(=O)N3C([H])([H])C3([H])c3c([H])c([H])c(C([H])(Oc4c([H])c(-c5sc([H])nc5C([H])([H])[H])c([H])c([H])c4C([H])([H])N([H])C(=O)C4([H])N(C(=O)C([H])(N([H])C(=O)C5(F)C([H])([H])C5([H])[H])C(C([H])([H])[H])(C([H])([H])[H])C([H])([H])[H])C([H])([H])C([H])(O[H])C4([H])[H])C([H])([H])[H])c([H])c3[H])C([H])([H])C2([H])[H])c1[H]

$$$$
63:0:0
     RDKit          3D

 71 78  0  0  1  0  0  0  0  0999 V2000
  -37.4150   13.6610  -23.7970 C   0  0  0  0  0  0  0  0  0  0  0  0
  -36.7400   13.5510  -22.5420 C   0  0  0  0  0  3  0  0  0  0  0  0
  -35.4900   12.8870  -22.3920 C   0  0  0  0  0  0  0  0  0  0  0  0
  -35.5850   12.3490  -24.7700 C   0  0  0  0  0  3  0  0  0  0  0  0
  -36.8400   12.9940  -24.9080 C   0  0  0  0  0  0  0  0  0  0  0  0
  -34.9130   12.3100  -23.5370 C   0  0  0  0  0  3  0  0  0  0  0  0
  -35.2580   12.3160  -19.8700 C   0  0  0  0  0  0  0  0  0  0  0  0
  -33.0870   12.6770  -19.3290 C   0  0  0  0  0  3  0  0  0  0  0  0
  -34.7960   12.7530  -21.0980 C   0  0  0  0  0  0  0  0  0  0  0  0
  -34.2770   12.2800  -18.8750 N   0  0  0  0  0  0  0  0  0  0  0  0
  -33.0860   13.1400  -21.0200 S   0  0  0  0  0  0  0  0  0  0  0  0
  -36.6360   11.8640  -19.5030 C   0  0  0  0  0  1  0  0  0  0  0  0
  -37.5980   12.8790  -26.2230 C   0  0  0  0  0  2  0  0  0  0  0  0
  -36.2090   13.6550  -28.1060 C   0  0  0  0  0  0  0  0  0  0  0  0
  -36.4780   14.8460  -27.9460 O   0  0  0  0  0  0  0  0  0  0  0  0
  -36.7410   12.6730  -27.3770 N   0  0  0  0  0  0  0  0  0  0  0  0
  -36.4810   11.7200  -27.5930 H   0  0  0  0  0  0  0  0  0  0  0  0
  -36.1520   14.4120  -31.1100 C   0  0  0  0  0  0  0  0  0  0  0  0
  -35.1610   13.2280  -29.1400 C   0  0  0  0  0  3  0  0  0  0  0  0
  -33.6960   14.4800  -30.5920 C   0  0  0  0  0  2  0  0  0  0  0  0
  -35.0890   14.1080  -30.3200 N   0  0  0  0  0  0  0  0  0  0  0  0
  -37.2740   13.9310  -30.9060 O   0  0  0  0  0  0  0  0  0  0  0  0
  -33.7670   13.2860  -28.4930 C   0  0  0  0  0  2  0  0  0  0  0  0
  -32.8390   13.6580  -29.6290 C   0  0  0  0  0  3  0  0  0  0  0  0
  -32.3960   12.4930  -30.3050 O   0  0  0  0  0  0  0  0  0  0  0  0
  -33.1590   12.0220  -30.6290 H   0  0  0  0  0  0  0  0  0  0  0  0
  -35.9730   15.3430  -32.3390 C   0  0  0  0  0  3  0  0  0  0  0  0
  -36.7210   14.7400  -33.4540 N   0  0  0  0  0  0  0  0  0  0  0  0
  -36.2030   14.2120  -34.5720 C   0  0  0  0  0  0  0  0  0  0  0  0
  -34.9940   14.2500  -34.8160 O   0  0  0  0  0  0  0  0  0  0  0  0
  -37.7140   14.6070  -33.3140 H   0  0  0  0  0  0  0  0  0  0  0  0
  -37.1900   13.5660  -35.5070 C   0  0  1  0  0  0  0  0  0  0  0  0
  -38.4560   13.4100  -34.9640 F   0  0  0  0  0  0  0  0  0  0  0  0
  -37.1110   13.8590  -36.9870 C   0  0  0  0  0  2  0  0  0  0  0  0
  -36.7250   12.4930  -36.4670 C   0  0  0  0  0  2  0  0  0  0  0  0
  -35.7810   17.4370  -30.8370 C   0  0  0  0  0  1  0  0  0  0  0  0
  -36.0210   17.6910  -33.2950 C   0  0  0  0  0  1  0  0  0  0  0  0
  -37.9770   16.9400  -31.9210 C   0  0  0  0  0  1  0  0  0  0  0  0
  -36.4460   16.8210  -32.0920 C   0  0  1  0  0  0  0  0  0  0  0  0
  -38.6720   14.2750  -23.8070 O   0  0  0  0  0  0  0  0  0  0  0  0
  -40.5760   15.8710  -26.7190 C   0  0  0  0  0  2  0  0  0  0  0  0
  -40.4450   14.8800  -25.5340 C   0  0  0  0  0  2  0  0  0  0  0  0
  -39.6600   17.0820  -26.4390 C   0  0  0  0  0  3  0  0  0  0  0  0
  -38.5000   16.3810  -25.6000 C   0  0  0  0  0  3  0  0  0  0  0  0
  -39.2280   15.3210  -24.6990 C   0  0  0  0  0  3  0  0  0  0  0  0
  -37.6540   17.3690  -24.7830 C   0  0  0  0  0  1  0  0  0  0  0  0
  -40.0870   18.8410  -28.3470 N   0  0  0  0  0  0  0  0  0  0  0  0
  -39.8220   19.4130  -29.7000 C   0  0  0  0  0  2  0  0  0  0  0  0
  -41.0690   19.4300  -30.6450 C   0  0  0  0  0  2  0  0  0  0  0  0
  -42.1660   18.6170  -30.1190 N   0  0  0  0  0  0  0  0  0  0  0  0
  -42.5570   18.8430  -28.7280 C   0  0  0  0  0  2  0  0  0  0  0  0
  -41.3770   19.3560  -27.8560 C   0  0  0  0  0  2  0  0  0  0  0  0
  -39.2860   17.8730  -27.7620 C   0  0  0  0  0  0  0  0  0  0  0  0
  -38.2110   17.5760  -28.2850 O   0  0  0  0  0  0  0  0  0  0  0  0
  -43.0920   18.0360  -31.0210 C   0  0  0  0  0  0  0  0  0  0  0  0
  -44.3960   18.5450  -31.2250 C   0  0  0  0  0  3  0  0  0  0  0  0
  -45.2750   17.8750  -32.1230 C   0  0  0  0  0  0  0  0  0  0  0  0
  -44.8450   16.7530  -32.7680 N   0  0  0  0  0  0  0  0  0  0  0  0
  -43.6240   16.2480  -32.5790 N   0  0  0  0  0  0  0  0  0  0  0  0
  -42.7670   16.8600  -31.7370 C   0  0  0  0  0  0  0  0  0  0  0  0
  -41.5410   16.2450  -31.5610 N   0  0  0  0  0  0  0  0  0  0  0  0
  -41.0560   16.5800  -30.7380 H   0  0  0  0  0  0  0  0  0  0  0  0
  -41.5210   15.2430  -31.6870 H   0  0  0  0  0  0  0  0  0  0  0  0
  -46.6840   18.3190  -32.4120 C   0  0  0  0  0  0  0  0  0  0  0  0
  -47.6060   17.6130  -33.2530 C   0  0  0  0  0  0  0  0  0  0  0  0
  -48.9190   18.0820  -33.4590 C   0  0  0  0  0  3  0  0  0  0  0  0
  -49.3630   19.2620  -32.8450 C   0  0  0  0  0  3  0  0  0  0  0  0
  -48.4840   19.9810  -32.0260 C   0  0  0  0  0  3  0  0  0  0  0  0
  -47.1720   19.5150  -31.8190 C   0  0  0  0  0  3  0  0  0  0  0  0
  -47.2880   16.4530  -33.9030 O   0  0  0  0  0  0  0  0  0  0  0  0
  -46.3780   16.2110  -33.7300 H   0  0  0  0  0  0  0  0  0  0  0  0
  1  2  1  0
  2  3  2  0
  3  9  1  0
  4  6  2  0
  5  4  1  0
  5  1  2  0
  6  3  1  0
  7 12  1  0
  7 10  1  0
  8 10  2  0
  9 11  1  0
  9  7  2  0
 11  8  1  0
 13  5  1  0
 14 15  2  0
 14 16  1  0
 16 13  1  0
 17 16  1  0
 18 22  2  0
 18 21  1  0
 19 23  1  0
 19 14  1  0
 20 21  1  0
 20 24  1  0
 21 19  1  0
 24 25  1  0
 24 23  1  0
 26 25  1  0
 27 39  1  0
 27 18  1  0
 28 31  1  0
 28 27  1  0
 29 28  1  0
 30 29  2  0
 32 33  1  1
 32 29  1  0
 34 35  1  0
 34 32  1  0
 35 32  1  0
 39 37  1  6
 39 38  1  0
 39 36  1  0
 40  1  1  0
 41 43  1  0
 41 42  1  0
 42 45  1  0
 43 53  1  0
 43 44  1  0
 44 46  1  0
 44 45  1  0
 45 40  1  0
 47 52  1  0
 47 53  1  0
 48 47  1  0
 49 50  1  0
 49 48  1  0
 50 51  1  0
 51 52  1  0
 54 53  2  0
 55 50  1  0
 56 55  1  0
 57 56  2  0
 58 59  2  0
 58 57  1  0
 59 60  1  0
 60 61  1  0
 60 55  2  0
 61 62  1  0
 63 61  1  0
 64 57  1  0
 64 69  1  0
 65 64  2  0
 66 65  1  0
 66 67  2  0
 67 68  1  0
 68 69  2  0
 70 71  1  0
 70 65  1  0
M  ISO  4  40 101  45 101  47 100  53 100
M  END
>  <TORSDO>  (64) 
F 15

>  <SCORE>  (64) 
-14.842

>  <name>  (64) 
63

>  <ligand_id>  (64) 
63

>  <original_smiles>  (64) 
[H]Oc1c([H])c([H])c([H])c([H])c1-c1nnc(N([H])[H])c(N2C([H])([H])C([H])([H])N(C(=O)C3([H])C([H])([H])C([H])([H])C([H])(Oc4c([H])c(-c5sc([H])nc5C([H])([H])[H])c([H])c([H])c4C([H])([H])N([H])C(=O)C4([H])N(C(=O)C([H])(N([H])C(=O)C5(F)C([H])([H])C5([H])[H])C(C([H])([H])[H])(C([H])([H])[H])C([H])([H])[H])C([H])([H])C([H])(O[H])C4([H])[H])C3([H])C([H])([H])[H])C([H])([H])C2([H])[H])c1[H]

>  <smiles>  (64) 
[H]Oc1c([H])c([H])c([H])c([H])c1-c1nnc(N([H])[H])c(N2C([H])([H])C([H])([H])N(C(=O)C3([H])C([H])([H])C([H])([H])C([H])(Oc4c([H])c(-c5sc([H])nc5C([H])([H])[H])c([H])c([H])c4C([H])([H])N([H])C(=O)C4([H])N(C(=O)C([H])(N([H])C(=O)C5(F)C([H])([H])C5([H])[H])C(C([H])([H])[H])(C([H])([H])[H])C([H])([H])[H])C([H])([H])C([H])(O[H])C4([H])[H])C3([H])C([H])([H])[H])C([H])([H])C2([H])[H])c1[H]

$$$$
64:0:0
     RDKit          3D

 77 85  0  0  1  0  0  0  0  0999 V2000
  -37.4110   13.5340  -23.7360 C   0  0  0  0  0  0  0  0  0  0  0  0
  -36.7230   13.4600  -22.4970 C   0  0  0  0  0  3  0  0  0  0  0  0
  -35.4760   12.7930  -22.3860 C   0  0  0  0  0  0  0  0  0  0  0  0
  -35.5820   12.2960  -24.7830 C   0  0  0  0  0  3  0  0  0  0  0  0
  -36.8440   12.9250  -24.8820 C   0  0  0  0  0  0  0  0  0  0  0  0
  -34.9090   12.2370  -23.5520 C   0  0  0  0  0  3  0  0  0  0  0  0
  -35.2480   12.1840  -19.8820 C   0  0  0  0  0  0  0  0  0  0  0  0
  -33.0650   12.4860  -19.3510 C   0  0  0  0  0  3  0  0  0  0  0  0
  -34.7770   12.6310  -21.1040 C   0  0  0  0  0  0  0  0  0  0  0  0
  -34.2620   12.1120  -18.8940 N   0  0  0  0  0  0  0  0  0  0  0  0
  -33.0580   12.9700  -21.0350 S   0  0  0  0  0  0  0  0  0  0  0  0
  -36.6390   11.7540  -19.5330 C   0  0  0  0  0  1  0  0  0  0  0  0
  -37.6080   12.9360  -26.2100 C   0  0  0  0  0  2  0  0  0  0  0  0
  -36.1960   13.6980  -28.0980 C   0  0  0  0  0  0  0  0  0  0  0  0
  -36.4220   14.8970  -27.9080 O   0  0  0  0  0  0  0  0  0  0  0  0
  -36.7730   12.7250  -27.3850 N   0  0  0  0  0  0  0  0  0  0  0  0
  -36.6090   11.7660  -27.6640 H   0  0  0  0  0  0  0  0  0  0  0  0
  -36.1340   14.4380  -31.1140 C   0  0  0  0  0  0  0  0  0  0  0  0
  -35.1530   13.2570  -29.1380 C   0  0  0  0  0  3  0  0  0  0  0  0
  -33.6710   14.4790  -30.6080 C   0  0  0  0  0  2  0  0  0  0  0  0
  -35.0690   14.1300  -30.3270 N   0  0  0  0  0  0  0  0  0  0  0  0
  -37.2600   13.9750  -30.8990 O   0  0  0  0  0  0  0  0  0  0  0  0
  -33.7560   13.3050  -28.4990 C   0  0  0  0  0  2  0  0  0  0  0  0
  -32.8240   13.6580  -29.6370 C   0  0  0  0  0  3  0  0  0  0  0  0
  -32.4060   12.4820  -30.3070 O   0  0  0  0  0  0  0  0  0  0  0  0
  -33.1810   12.0360  -30.6340 H   0  0  0  0  0  0  0  0  0  0  0  0
  -35.9500   15.3560  -32.3490 C   0  0  0  0  0  3  0  0  0  0  0  0
  -36.6880   14.7430  -33.4660 N   0  0  0  0  0  0  0  0  0  0  0  0
  -36.1610   14.2150  -34.5810 C   0  0  0  0  0  0  0  0  0  0  0  0
  -34.9520   14.2600  -34.8200 O   0  0  0  0  0  0  0  0  0  0  0  0
  -37.6790   14.6040  -33.3270 H   0  0  0  0  0  0  0  0  0  0  0  0
  -37.1420   13.5620  -35.5170 C   0  0  1  0  0  0  0  0  0  0  0  0
  -38.4040   13.3830  -34.9740 F   0  0  0  0  0  0  0  0  0  0  0  0
  -37.0720   13.8700  -36.9960 C   0  0  0  0  0  2  0  0  0  0  0  0
  -36.6680   12.5030  -36.4880 C   0  0  0  0  0  2  0  0  0  0  0  0
  -35.7700   17.4570  -30.8610 C   0  0  0  0  0  1  0  0  0  0  0  0
  -35.9770   17.6880  -33.3220 C   0  0  0  0  0  1  0  0  0  0  0  0
  -37.9610   16.9610  -31.9740 C   0  0  0  0  0  1  0  0  0  0  0  0
  -36.4270   16.8360  -32.1170 C   0  0  1  0  0  0  0  0  0  0  0  0
  -38.6350   14.1610  -23.8910 O   0  0  0  0  0  0  0  0  0  0  0  0
  -38.8570   15.5030  -23.4110 C   0  0  0  0  0  2  0  0  0  0  0  0
  -37.6630   16.4520  -23.6940 C   0  0  0  0  0  2  0  0  0  0  0  0
  -40.0780   19.3890  -28.4610 N   0  0  0  0  0  0  0  0  0  0  0  0
  -39.8800   19.4770  -29.9170 C   0  0  0  0  0  2  0  0  0  0  0  0
  -41.1860   19.5220  -30.7320 C   0  0  0  0  0  2  0  0  0  0  0  0
  -42.1860   18.6390  -30.1530 N   0  0  0  0  0  0  0  0  0  0  0  0
  -42.5320   18.8110  -28.7480 C   0  0  0  0  0  2  0  0  0  0  0  0
  -41.4540   19.5920  -27.9770 C   0  0  0  0  0  2  0  0  0  0  0  0
  -38.8000   22.3840  -27.1940 C   0  0  0  0  0  3  0  0  0  0  0  0
  -37.9790   21.9380  -26.1540 C   0  0  0  0  0  0  0  0  0  0  0  0
  -37.8390   20.5430  -26.0100 C   0  0  0  0  0  0  0  0  0  0  0  0
  -39.2310   20.2360  -27.7790 C   0  0  0  0  0  0  0  0  0  0  0  0
  -38.3740   18.8920  -23.0570 C   0  0  0  0  0  2  0  0  0  0  0  0
  -38.0740   20.2580  -23.6920 C   0  0  0  0  0  2  0  0  0  0  0  0
  -36.8430   18.6040  -24.8140 C   0  0  0  0  0  2  0  0  0  0  0  0
  -38.0210   17.8820  -24.1530 C   0  0  0  0  0  3  0  0  0  0  0  0
  -37.3660   22.9540  -25.2070 C   0  0  0  0  0  1  0  0  0  0  0  0
  -39.4110   21.5260  -28.0130 N   0  0  0  0  0  0  0  0  0  0  0  0
  -38.4680   19.6940  -26.8430 N   0  0  0  0  0  0  0  0  0  0  0  0
  -37.2200   20.0170  -24.8570 N   0  0  0  0  0  0  0  0  0  0  0  0
  -43.1100   18.0340  -31.0290 C   0  0  0  0  0  0  0  0  0  0  0  0
  -44.4120   18.5320  -31.2180 C   0  0  0  0  0  3  0  0  0  0  0  0
  -45.2760   17.8690  -32.1350 C   0  0  0  0  0  0  0  0  0  0  0  0
  -44.8330   16.7610  -32.7910 N   0  0  0  0  0  0  0  0  0  0  0  0
  -43.6100   16.2600  -32.6010 N   0  0  0  0  0  0  0  0  0  0  0  0
  -42.7630   16.8700  -31.7480 C   0  0  0  0  0  0  0  0  0  0  0  0
  -41.5310   16.2610  -31.5870 N   0  0  0  0  0  0  0  0  0  0  0  0
  -41.0420   16.5390  -30.7460 H   0  0  0  0  0  0  0  0  0  0  0  0
  -41.4900   15.2750  -31.7990 H   0  0  0  0  0  0  0  0  0  0  0  0
  -46.6810   18.3120  -32.4270 C   0  0  0  0  0  0  0  0  0  0  0  0
  -47.5990   17.5950  -33.2660 C   0  0  0  0  0  0  0  0  0  0  0  0
  -48.9130   18.0640  -33.4730 C   0  0  0  0  0  3  0  0  0  0  0  0
  -49.3590   19.2470  -32.8680 C   0  0  0  0  0  3  0  0  0  0  0  0
  -48.4800   19.9750  -32.0530 C   0  0  0  0  0  3  0  0  0  0  0  0
  -47.1690   19.5120  -31.8450 C   0  0  0  0  0  3  0  0  0  0  0  0
  -47.2810   16.4330  -33.9090 O   0  0  0  0  0  0  0  0  0  0  0  0
  -46.3690   16.1900  -33.7480 H   0  0  0  0  0  0  0  0  0  0  0  0
  1  2  1  0
  2  3  2  0
  3  9  1  0
  4  6  2  0
  5  4  1  0
  5  1  2  0
  6  3  1  0
  7 12  1  0
  7 10  1  0
  8 10  2  0
  9 11  1  0
  9  7  2  0
 11  8  1  0
 13  5  1  0
 14 15  2  0
 14 16  1  0
 16 13  1  0
 17 16  1  0
 18 22  2  0
 18 21  1  0
 19 23  1  0
 19 14  1  0
 20 21  1  0
 20 24  1  0
 21 19  1  0
 24 25  1  0
 24 23  1  0
 26 25  1  0
 27 39  1  0
 27 18  1  0
 28 31  1  0
 28 27  1  0
 29 28  1  0
 30 29  2  0
 32 33  1  1
 32 29  1  0
 34 35  1  0
 34 32  1  0
 35 32  1  0
 39 37  1  6
 39 38  1  0
 39 36  1  0
 40  1  1  0
 40 41  1  0
 42 41  1  0
 43 48  1  0
 43 52  1  0
 44 43  1  0
 45 46  1  0
 45 44  1  0
 46 47  1  0
 47 48  1  0
 49 50  2  0
 50 51  1  0
 50 57  1  0
 51 60  1  0
 52 59  1  0
 54 53  1  0
 55 56  1  0
 56 42  1  0
 56 53  1  0
 58 52  2  0
 58 49  1  0
 59 51  2  0
 60 55  1  0
 60 54  1  0
 61 46  1  0
 62 61  1  0
 63 62  2  0
 64 65  2  0
 64 63  1  0
 65 66  1  0
 66 67  1  0
 66 61  2  0
 67 68  1  0
 69 67  1  0
 70 63  1  0
 70 75  1  0
 71 70  2  0
 72 71  1  0
 72 73  2  0
 73 74  1  0
 74 75  2  0
 76 77  1  0
 76 71  1  0
M  ISO  4  40 101  41 101  43 100  52 100
M  END
>  <TORSDO>  (65) 
F 16

>  <SCORE>  (65) 
-14.738

>  <name>  (65) 
64

>  <ligand_id>  (65) 
64

>  <original_smiles>  (65) 
[H]Oc1c([H])c([H])c([H])c([H])c1-c1nnc(N([H])[H])c(N2C([H])([H])C([H])([H])N(c3nc([H])c(C([H])([H])[H])c(N4C([H])([H])C([H])([H])C([H])(C([H])([H])C([H])([H])Oc5c([H])c(-c6sc([H])nc6C([H])([H])[H])c([H])c([H])c5C([H])([H])N([H])C(=O)C5([H])N(C(=O)C([H])(N([H])C(=O)C6(F)C([H])([H])C6([H])[H])C(C([H])([H])[H])(C([H])([H])[H])C([H])([H])[H])C([H])([H])C([H])(O[H])C5([H])[H])C4([H])[H])n3)C([H])([H])C2([H])[H])c1[H]

>  <smiles>  (65) 
[H]Oc1c([H])c([H])c([H])c([H])c1-c1nnc(N([H])[H])c(N2C([H])([H])C([H])([H])N(c3nc([H])c(C([H])([H])[H])c(N4C([H])([H])C([H])([H])C([H])(C([H])([H])C([H])([H])Oc5c([H])c(-c6sc([H])nc6C([H])([H])[H])c([H])c([H])c5C([H])([H])N([H])C(=O)C5([H])N(C(=O)C([H])(N([H])C(=O)C6(F)C([H])([H])C6([H])[H])C(C([H])([H])[H])(C([H])([H])[H])C([H])([H])[H])C([H])([H])C([H])(O[H])C5([H])[H])C4([H])[H])n3)C([H])([H])C2([H])[H])c1[H]

$$$$
65:0:0
     RDKit          3D

 71 78  0  0  1  0  0  0  0  0999 V2000
  -37.3900   13.5630  -23.7610 C   0  0  0  0  0  0  0  0  0  0  0  0
  -36.7220   13.4820  -22.5120 C   0  0  0  0  0  3  0  0  0  0  0  0
  -35.4680   12.8300  -22.3910 C   0  0  0  0  0  0  0  0  0  0  0  0
  -35.5640   12.3130  -24.7820 C   0  0  0  0  0  3  0  0  0  0  0  0
  -36.8270   12.9350  -24.8920 C   0  0  0  0  0  0  0  0  0  0  0  0
  -34.8880   12.2730  -23.5500 C   0  0  0  0  0  3  0  0  0  0  0  0
  -35.2360   12.2370  -19.8870 C   0  0  0  0  0  0  0  0  0  0  0  0
  -33.0670   12.6020  -19.3430 C   0  0  0  0  0  3  0  0  0  0  0  0
  -34.7720   12.6910  -21.1060 C   0  0  0  0  0  0  0  0  0  0  0  0
  -34.2550   12.1920  -18.8930 N   0  0  0  0  0  0  0  0  0  0  0  0
  -33.0680   13.0910  -21.0260 S   0  0  0  0  0  0  0  0  0  0  0  0
  -36.6150   11.7750  -19.5320 C   0  0  0  0  0  1  0  0  0  0  0  0
  -37.5990   12.9200  -26.2080 C   0  0  0  0  0  2  0  0  0  0  0  0
  -36.2120   13.7020  -28.0960 C   0  0  0  0  0  0  0  0  0  0  0  0
  -36.4720   14.8950  -27.9220 O   0  0  0  0  0  0  0  0  0  0  0  0
  -36.7560   12.7200  -27.3740 N   0  0  0  0  0  0  0  0  0  0  0  0
  -36.5080   11.7670  -27.6020 H   0  0  0  0  0  0  0  0  0  0  0  0
  -36.1560   14.4500  -31.1100 C   0  0  0  0  0  0  0  0  0  0  0  0
  -35.1710   13.2650  -29.1380 C   0  0  0  0  0  3  0  0  0  0  0  0
  -33.6980   14.4950  -30.6010 C   0  0  0  0  0  2  0  0  0  0  0  0
  -35.0940   14.1400  -30.3210 N   0  0  0  0  0  0  0  0  0  0  0  0
  -37.2810   13.9810  -30.8990 O   0  0  0  0  0  0  0  0  0  0  0  0
  -33.7720   13.3050  -28.5000 C   0  0  0  0  0  2  0  0  0  0  0  0
  -32.8440   13.6670  -29.6410 C   0  0  0  0  0  3  0  0  0  0  0  0
  -32.4140   12.4970  -30.3180 O   0  0  0  0  0  0  0  0  0  0  0  0
  -33.1810   12.0330  -30.6370 H   0  0  0  0  0  0  0  0  0  0  0  0
  -35.9720   15.3790  -32.3390 C   0  0  0  0  0  3  0  0  0  0  0  0
  -36.7210   14.7780  -33.4550 N   0  0  0  0  0  0  0  0  0  0  0  0
  -36.2030   14.2370  -34.5660 C   0  0  0  0  0  0  0  0  0  0  0  0
  -34.9930   14.2570  -34.8030 O   0  0  0  0  0  0  0  0  0  0  0  0
  -37.7160   14.6600  -33.3200 H   0  0  0  0  0  0  0  0  0  0  0  0
  -37.1940   13.5970  -35.5030 C   0  0  1  0  0  0  0  0  0  0  0  0
  -38.4670   13.4680  -34.9700 F   0  0  0  0  0  0  0  0  0  0  0  0
  -37.0980   13.8740  -36.9860 C   0  0  0  0  0  2  0  0  0  0  0  0
  -36.7390   12.5060  -36.4480 C   0  0  0  0  0  2  0  0  0  0  0  0
  -35.7680   17.4770  -30.8430 C   0  0  0  0  0  1  0  0  0  0  0  0
  -36.0190   17.7260  -33.2990 C   0  0  0  0  0  1  0  0  0  0  0  0
  -37.9700   16.9840  -31.9150 C   0  0  0  0  0  1  0  0  0  0  0  0
  -36.4410   16.8600  -32.0930 C   0  0  1  0  0  0  0  0  0  0  0  0
  -38.5750   14.2530  -23.9160 O   0  0  0  0  0  0  0  0  0  0  0  0
  -38.4160   15.6860  -24.0570 C   0  0  0  0  0  2  0  0  0  0  0  0
  -40.1930   19.0800  -28.2430 N   0  0  0  0  0  0  0  0  0  0  0  0
  -39.8160   19.2870  -29.6550 C   0  0  0  0  0  2  0  0  0  0  0  0
  -41.0470   19.3800  -30.6180 C   0  0  0  0  0  2  0  0  0  0  0  0
  -42.1890   18.6260  -30.0950 N   0  0  0  0  0  0  0  0  0  0  0  0
  -42.6440   18.9610  -28.7460 C   0  0  0  0  0  2  0  0  0  0  0  0
  -41.5170   19.5750  -27.8760 C   0  0  0  0  0  2  0  0  0  0  0  0
  -40.5460   16.9190  -27.0640 C   0  0  0  0  0  3  0  0  0  0  0  0
  -40.1390   16.0810  -25.9930 C   0  0  0  0  0  0  0  0  0  0  0  0
  -38.8880   16.3510  -25.3820 C   0  0  0  0  0  0  0  0  0  0  0  0
  -39.7170   18.0000  -27.4530 C   0  0  0  0  0  0  0  0  0  0  0  0
  -41.0670   14.9920  -25.4870 C   0  0  0  0  0  1  0  0  0  0  0  0
  -38.1000   17.3560  -25.8630 N   0  0  0  0  0  0  0  0  0  0  0  0
  -38.5020   18.1590  -26.8690 N   0  0  0  0  0  0  0  0  0  0  0  0
  -43.1000   18.0320  -31.0010 C   0  0  0  0  0  0  0  0  0  0  0  0
  -44.3990   18.5380  -31.2210 C   0  0  0  0  0  3  0  0  0  0  0  0
  -45.2690   17.8590  -32.1210 C   0  0  0  0  0  0  0  0  0  0  0  0
  -44.8310   16.7320  -32.7510 N   0  0  0  0  0  0  0  0  0  0  0  0
  -43.6110   16.2290  -32.5450 N   0  0  0  0  0  0  0  0  0  0  0  0
  -42.7630   16.8510  -31.7000 C   0  0  0  0  0  0  0  0  0  0  0  0
  -41.5410   16.2360  -31.4980 N   0  0  0  0  0  0  0  0  0  0  0  0
  -41.0850   16.5700  -30.6600 H   0  0  0  0  0  0  0  0  0  0  0  0
  -41.5300   15.2320  -31.6090 H   0  0  0  0  0  0  0  0  0  0  0  0
  -46.6750   18.3010  -32.4220 C   0  0  0  0  0  0  0  0  0  0  0  0
  -47.5910   17.5820  -33.2600 C   0  0  0  0  0  0  0  0  0  0  0  0
  -48.9020   18.0500  -33.4820 C   0  0  0  0  0  3  0  0  0  0  0  0
  -49.3500   19.2380  -32.8870 C   0  0  0  0  0  3  0  0  0  0  0  0
  -48.4760   19.9680  -32.0700 C   0  0  0  0  0  3  0  0  0  0  0  0
  -47.1660   19.5040  -31.8480 C   0  0  0  0  0  3  0  0  0  0  0  0
  -47.2680   16.4140  -33.8920 O   0  0  0  0  0  0  0  0  0  0  0  0
  -46.3590   16.1750  -33.7080 H   0  0  0  0  0  0  0  0  0  0  0  0
  1  2  1  0
  2  3  2  0
  3  9  1  0
  4  6  2  0
  5  4  1  0
  5  1  2  0
  6  3  1  0
  7 12  1  0
  7 10  1  0
  8 10  2  0
  9 11  1  0
  9  7  2  0
 11  8  1  0
 13  5  1  0
 14 15  2  0
 14 16  1  0
 16 13  1  0
 17 16  1  0
 18 22  2  0
 18 21  1  0
 19 23  1  0
 19 14  1  0
 20 21  1  0
 20 24  1  0
 21 19  1  0
 24 25  1  0
 24 23  1  0
 26 25  1  0
 27 39  1  0
 27 18  1  0
 28 31  1  0
 28 27  1  0
 29 28  1  0
 30 29  2  0
 32 33  1  1
 32 29  1  0
 34 35  1  0
 34 32  1  0
 35 32  1  0
 39 37  1  6
 39 38  1  0
 39 36  1  0
 40  1  1  0
 41 40  1  0
 42 47  1  0
 42 51  1  0
 43 42  1  0
 44 45  1  0
 44 43  1  0
 45 46  1  0
 46 47  1  0
 48 49  1  0
 49 52  1  0
 49 50  2  0
 50 41  1  0
 51 48  2  0
 51 54  1  0
 53 50  1  0
 54 53  2  0
 55 45  1  0
 56 55  1  0
 57 56  2  0
 58 59  2  0
 58 57  1  0
 59 60  1  0
 60 61  1  0
 60 55  2  0
 61 62  1  0
 63 61  1  0
 64 57  1  0
 64 69  1  0
 65 64  2  0
 66 65  1  0
 66 67  2  0
 67 68  1  0
 68 69  2  0
 70 71  1  0
 70 65  1  0
M  ISO  4  40 101  41 101  42 100  51 100
M  END
>  <TORSDO>  (66) 
F 15

>  <SCORE>  (66) 
-14.703

>  <name>  (66) 
65

>  <ligand_id>  (66) 
65

>  <original_smiles>  (66) 
[H]Oc1c([H])c([H])c([H])c([H])c1-c1nnc(N([H])[H])c(N2C([H])([H])C([H])([H])N(c3nnc(C([H])([H])Oc4c([H])c(-c5sc([H])nc5C([H])([H])[H])c([H])c([H])c4C([H])([H])N([H])C(=O)C4([H])N(C(=O)C([H])(N([H])C(=O)C5(F)C([H])([H])C5([H])[H])C(C([H])([H])[H])(C([H])([H])[H])C([H])([H])[H])C([H])([H])C([H])(O[H])C4([H])[H])c(C([H])([H])[H])c3[H])C([H])([H])C2([H])[H])c1[H]

>  <smiles>  (66) 
[H]Oc1c([H])c([H])c([H])c([H])c1-c1nnc(N([H])[H])c(N2C([H])([H])C([H])([H])N(c3nnc(C([H])([H])Oc4c([H])c(-c5sc([H])nc5C([H])([H])[H])c([H])c([H])c4C([H])([H])N([H])C(=O)C4([H])N(C(=O)C([H])(N([H])C(=O)C5(F)C([H])([H])C5([H])[H])C(C([H])([H])[H])(C([H])([H])[H])C([H])([H])[H])C([H])([H])C([H])(O[H])C4([H])[H])c(C([H])([H])[H])c3[H])C([H])([H])C2([H])[H])c1[H]

$$$$
66:0:0
     RDKit          3D

 76 84  0  0  1  0  0  0  0  0999 V2000
  -37.4190   13.4560  -23.7440 C   0  0  0  0  0  0  0  0  0  0  0  0
  -36.7410   13.3820  -22.5120 C   0  0  0  0  0  3  0  0  0  0  0  0
  -35.4600   12.8100  -22.4210 C   0  0  0  0  0  0  0  0  0  0  0  0
  -35.5530   12.3340  -24.8220 C   0  0  0  0  0  3  0  0  0  0  0  0
  -36.8420   12.9050  -24.9120 C   0  0  0  0  0  0  0  0  0  0  0  0
  -34.8660   12.3030  -23.5950 C   0  0  0  0  0  3  0  0  0  0  0  0
  -35.2510   12.2820  -19.9130 C   0  0  0  0  0  0  0  0  0  0  0  0
  -33.0990   12.7100  -19.3520 C   0  0  0  0  0  3  0  0  0  0  0  0
  -34.7750   12.7160  -21.1350 C   0  0  0  0  0  0  0  0  0  0  0  0
  -34.2810   12.2800  -18.9090 N   0  0  0  0  0  0  0  0  0  0  0  0
  -33.0900   13.1730  -21.0430 S   0  0  0  0  0  0  0  0  0  0  0  0
  -36.6270   11.8030  -19.5660 C   0  0  0  0  0  1  0  0  0  0  0  0
  -37.6060   12.9370  -26.2360 C   0  0  0  0  0  2  0  0  0  0  0  0
  -36.2110   13.6970  -28.1420 C   0  0  0  0  0  0  0  0  0  0  0  0
  -36.4700   14.8920  -27.9820 O   0  0  0  0  0  0  0  0  0  0  0  0
  -36.7610   12.7270  -27.4070 N   0  0  0  0  0  0  0  0  0  0  0  0
  -36.5140   11.7700  -27.6220 H   0  0  0  0  0  0  0  0  0  0  0  0
  -36.1280   14.4220  -31.1660 C   0  0  0  0  0  0  0  0  0  0  0  0
  -35.1610   13.2520  -29.1750 C   0  0  0  0  0  3  0  0  0  0  0  0
  -33.6750   14.4740  -30.6380 C   0  0  0  0  0  2  0  0  0  0  0  0
  -35.0730   14.1190  -30.3660 N   0  0  0  0  0  0  0  0  0  0  0  0
  -37.2530   13.9490  -30.9630 O   0  0  0  0  0  0  0  0  0  0  0  0
  -33.7650   13.2970  -28.5310 C   0  0  0  0  0  2  0  0  0  0  0  0
  -32.8280   13.6540  -29.6670 C   0  0  0  0  0  3  0  0  0  0  0  0
  -32.3860   12.4830  -30.3340 O   0  0  0  0  0  0  0  0  0  0  0  0
  -33.1480   12.0120  -30.6560 H   0  0  0  0  0  0  0  0  0  0  0  0
  -35.9340   15.3440  -32.4000 C   0  0  0  0  0  3  0  0  0  0  0  0
  -36.6810   14.7410  -33.5170 N   0  0  0  0  0  0  0  0  0  0  0  0
  -36.1610   14.2010  -34.6280 C   0  0  0  0  0  0  0  0  0  0  0  0
  -34.9500   14.2260  -34.8650 O   0  0  0  0  0  0  0  0  0  0  0  0
  -37.6770   14.6190  -33.3830 H   0  0  0  0  0  0  0  0  0  0  0  0
  -37.1490   13.5590  -35.5670 C   0  0  1  0  0  0  0  0  0  0  0  0
  -38.4200   13.4200  -35.0310 F   0  0  0  0  0  0  0  0  0  0  0  0
  -37.0570   13.8400  -37.0480 C   0  0  0  0  0  2  0  0  0  0  0  0
  -36.6900   12.4730  -36.5140 C   0  0  0  0  0  2  0  0  0  0  0  0
  -35.7360   17.4440  -30.9060 C   0  0  0  0  0  1  0  0  0  0  0  0
  -35.9610   17.6900  -33.3650 C   0  0  0  0  0  1  0  0  0  0  0  0
  -37.9290   16.9600  -32.0010 C   0  0  0  0  0  1  0  0  0  0  0  0
  -36.3980   16.8280  -32.1620 C   0  0  1  0  0  0  0  0  0  0  0  0
  -38.5480   14.2200  -23.8240 O   0  0  0  0  0  0  0  0  0  0  0  0
  -39.0990   16.4620  -24.6660 C   0  0  0  0  0  0  0  0  0  0  0  0
  -37.8120   16.3940  -22.7080 C   0  0  0  0  0  2  0  0  0  0  0  0
  -37.8860   17.8270  -23.2520 C   0  0  0  0  0  2  0  0  0  0  0  0
  -38.1110   15.5760  -23.9620 C   0  0  0  0  0  3  0  0  0  0  0  0
  -38.7390   17.7420  -24.4430 N   0  0  0  0  0  0  0  0  0  0  0  0
  -40.0700   16.0230  -25.2960 O   0  0  0  0  0  0  0  0  0  0  0  0
  -40.3220   19.2690  -28.5060 N   0  0  0  0  0  0  0  0  0  0  0  0
  -40.0220   19.5330  -29.9130 C   0  0  0  0  0  2  0  0  0  0  0  0
  -41.2780   19.4550  -30.8240 C   0  0  0  0  0  2  0  0  0  0  0  0
  -42.3350   18.6230  -30.2440 N   0  0  0  0  0  0  0  0  0  0  0  0
  -42.7510   18.8790  -28.8680 C   0  0  0  0  0  2  0  0  0  0  0  0
  -41.6700   19.6200  -28.0650 C   0  0  0  0  0  2  0  0  0  0  0  0
  -37.8740   19.8490  -25.3800 C   0  0  0  0  0  3  0  0  0  0  0  0
  -38.7310   18.7370  -25.4610 C   0  0  0  0  0  0  0  0  0  0  0  0
  -37.8220   20.7030  -26.4910 C   0  0  0  0  0  0  0  0  0  0  0  0
  -39.3780   19.4470  -27.5330 C   0  0  0  0  0  0  0  0  0  0  0  0
  -39.4850   18.5890  -26.5540 N   0  0  0  0  0  0  0  0  0  0  0  0
  -38.5820   20.4960  -27.5840 N   0  0  0  0  0  0  0  0  0  0  0  0
  -36.7590   22.0590  -26.4700 Cl  0  0  0  0  0  0  0  0  0  0  0  0
  -43.2690   18.0360  -31.1220 C   0  0  0  0  0  0  0  0  0  0  0  0
  -44.5710   18.5480  -31.3070 C   0  0  0  0  0  3  0  0  0  0  0  0
  -45.4550   17.8750  -32.1930 C   0  0  0  0  0  0  0  0  0  0  0  0
  -45.0280   16.7560  -32.8450 N   0  0  0  0  0  0  0  0  0  0  0  0
  -43.8040   16.2510  -32.6690 N   0  0  0  0  0  0  0  0  0  0  0  0
  -42.9420   16.8640  -31.8360 C   0  0  0  0  0  0  0  0  0  0  0  0
  -41.7100   16.2590  -31.6650 N   0  0  0  0  0  0  0  0  0  0  0  0
  -41.2400   16.5980  -30.8350 H   0  0  0  0  0  0  0  0  0  0  0  0
  -41.6950   15.2550  -31.7720 H   0  0  0  0  0  0  0  0  0  0  0  0
  -46.8680   18.3190  -32.4610 C   0  0  0  0  0  0  0  0  0  0  0  0
  -47.7920   17.6150  -33.3020 C   0  0  0  0  0  0  0  0  0  0  0  0
  -49.1090   18.0820  -33.4910 C   0  0  0  0  0  3  0  0  0  0  0  0
  -49.5520   19.2530  -32.8630 C   0  0  0  0  0  3  0  0  0  0  0  0
  -48.6700   19.9680  -32.0420 C   0  0  0  0  0  3  0  0  0  0  0  0
  -47.3550   19.5060  -31.8510 C   0  0  0  0  0  3  0  0  0  0  0  0
  -47.4740   16.4630  -33.9640 O   0  0  0  0  0  0  0  0  0  0  0  0
  -46.5610   16.2240  -33.7980 H   0  0  0  0  0  0  0  0  0  0  0  0
  1  2  1  0
  2  3  2  0
  3  9  1  0
  4  6  2  0
  5  4  1  0
  5  1  2  0
  6  3  1  0
  7 12  1  0
  7 10  1  0
  8 10  2  0
  9 11  1  0
  9  7  2  0
 11  8  1  0
 13  5  1  0
 14 15  2  0
 14 16  1  0
 16 13  1  0
 17 16  1  0
 18 22  2  0
 18 21  1  0
 19 23  1  0
 19 14  1  0
 20 21  1  0
 20 24  1  0
 21 19  1  0
 24 25  1  0
 24 23  1  0
 26 25  1  0
 27 39  1  0
 27 18  1  0
 28 31  1  0
 28 27  1  0
 29 28  1  0
 30 29  2  0
 32 33  1  1
 32 29  1  0
 34 35  1  0
 34 32  1  0
 35 32  1  0
 39 37  1  6
 39 38  1  0
 39 36  1  0
 40  1  1  0
 41 45  1  0
 41 44  1  0
 43 42  1  0
 44 40  1  0
 44 42  1  0
 45 43  1  0
 46 41  2  0
 47 52  1  0
 47 56  1  0
 48 47  1  0
 49 50  1  0
 49 48  1  0
 50 51  1  0
 51 52  1  0
 54 53  2  0
 54 45  1  0
 55 59  1  0
 55 53  1  0
 56 57  2  0
 57 54  1  0
 58 56  1  0
 58 55  2  0
 60 50  1  0
 61 60  1  0
 62 61  2  0
 63 64  2  0
 63 62  1  0
 64 65  1  0
 65 66  1  0
 65 60  2  0
 66 67  1  0
 68 66  1  0
 69 62  1  0
 69 74  1  0
 70 69  2  0
 71 70  1  0
 71 72  2  0
 72 73  1  0
 73 74  2  0
 75 76  1  0
 75 70  1  0
M  ISO  4  40 101  44 101  47 100  56 100
M  END
>  <TORSDO>  (67) 
F 15

>  <SCORE>  (67) 
-14.977

>  <name>  (67) 
66

>  <ligand_id>  (67) 
66

>  <original_smiles>  (67) 
[H]Oc1c([H])c([H])c([H])c([H])c1-c1nnc(N([H])[H])c(N2C([H])([H])C([H])([H])N(c3nc(Cl)c([H])c(N4C(=O)C([H])(Oc5c([H])c(-c6sc([H])nc6C([H])([H])[H])c([H])c([H])c5C([H])([H])N([H])C(=O)C5([H])N(C(=O)C([H])(N([H])C(=O)C6(F)C([H])([H])C6([H])[H])C(C([H])([H])[H])(C([H])([H])[H])C([H])([H])[H])C([H])([H])C([H])(O[H])C5([H])[H])C([H])([H])C4([H])[H])n3)C([H])([H])C2([H])[H])c1[H]

>  <smiles>  (67) 
[H]Oc1c([H])c([H])c([H])c([H])c1-c1nnc(N([H])[H])c(N2C([H])([H])C([H])([H])N(c3nc(Cl)c([H])c(N4C(=O)C([H])(Oc5c([H])c(-c6sc([H])nc6C([H])([H])[H])c([H])c([H])c5C([H])([H])N([H])C(=O)C5([H])N(C(=O)C([H])(N([H])C(=O)C6(F)C([H])([H])C6([H])[H])C(C([H])([H])[H])(C([H])([H])[H])C([H])([H])[H])C([H])([H])C([H])(O[H])C5([H])[H])C([H])([H])C4([H])[H])n3)C([H])([H])C2([H])[H])c1[H]

$$$$
67:0:0
     RDKit          3D

 81 89  0  0  1  0  0  0  0  0999 V2000
  -40.8450   14.5140  -23.5790 C   0  0  0  0  0  2  0  0  0  0  0  0
  -41.8470   15.6680  -23.6980 C   0  0  0  0  0  2  0  0  0  0  0  0
  -40.0420   17.3620  -23.9160 C   0  0  0  0  0  2  0  0  0  0  0  0
  -39.3890   14.9100  -23.9700 C   0  0  0  0  0  3  0  0  0  0  0  0
  -38.9990   16.3150  -23.3920 C   0  0  1  0  0  0  0  0  0  0  0  0
  -37.5950   16.7360  -23.8830 C   0  0  0  0  0  1  0  0  0  0  0  0
  -38.9970   16.3270  -21.8470 C   0  0  0  0  0  1  0  0  0  0  0  0
  -41.1920   16.6670  -24.5440 N   0  0  2  0  0  4  0  0  0  0  0  0
  -40.6960   16.0340  -25.1530 H   0  0  0  0  0  0  0  0  0  0  0  0
  -38.7220   13.7610  -23.5270 O   0  0  0  0  0  0  0  0  0  0  0  0
  -37.3920   13.4970  -23.6730 C   0  0  0  0  0  0  0  0  0  0  0  0
  -36.6800   13.4220  -22.4630 C   0  0  0  0  0  3  0  0  0  0  0  0
  -35.3940   12.8600  -22.3950 C   0  0  0  0  0  0  0  0  0  0  0  0
  -35.5090   12.4580  -24.8060 C   0  0  0  0  0  3  0  0  0  0  0  0
  -36.8130   13.0070  -24.8710 C   0  0  0  0  0  0  0  0  0  0  0  0
  -34.8100   12.3870  -23.5880 C   0  0  0  0  0  3  0  0  0  0  0  0
  -35.1820   12.2500  -19.8950 C   0  0  0  0  0  0  0  0  0  0  0  0
  -33.0230   12.6480  -19.3390 C   0  0  0  0  0  3  0  0  0  0  0  0
  -34.7090   12.7090  -21.1120 C   0  0  0  0  0  0  0  0  0  0  0  0
  -34.2060   12.2190  -18.8960 N   0  0  0  0  0  0  0  0  0  0  0  0
  -33.0180   13.1410  -21.0190 S   0  0  0  0  0  0  0  0  0  0  0  0
  -36.5590   11.7740  -19.5440 C   0  0  0  0  0  1  0  0  0  0  0  0
  -37.5980   12.9700  -26.1840 C   0  0  0  0  0  2  0  0  0  0  0  0
  -36.2060   13.7290  -28.0860 C   0  0  0  0  0  0  0  0  0  0  0  0
  -36.4410   14.9270  -27.9070 O   0  0  0  0  0  0  0  0  0  0  0  0
  -36.7670   12.7570  -27.3620 N   0  0  0  0  0  0  0  0  0  0  0  0
  -36.5410   11.7990  -27.5950 H   0  0  0  0  0  0  0  0  0  0  0  0
  -36.1530   14.4730  -31.1040 C   0  0  0  0  0  0  0  0  0  0  0  0
  -35.1710   13.2830  -29.1300 C   0  0  0  0  0  3  0  0  0  0  0  0
  -33.6930   14.4970  -30.6060 C   0  0  0  0  0  2  0  0  0  0  0  0
  -35.0910   14.1540  -30.3190 N   0  0  0  0  0  0  0  0  0  0  0  0
  -37.2800   14.0150  -30.8860 O   0  0  0  0  0  0  0  0  0  0  0  0
  -33.7680   13.3180  -28.5000 C   0  0  0  0  0  2  0  0  0  0  0  0
  -32.8430   13.6680  -29.6470 C   0  0  0  0  0  3  0  0  0  0  0  0
  -32.4230   12.4920  -30.3230 O   0  0  0  0  0  0  0  0  0  0  0  0
  -33.1960   12.0390  -30.6460 H   0  0  0  0  0  0  0  0  0  0  0  0
  -35.9640   15.3940  -32.3390 C   0  0  0  0  0  3  0  0  0  0  0  0
  -35.7620   17.5040  -30.8600 C   0  0  0  0  0  1  0  0  0  0  0  0
  -35.9870   17.7310  -33.3230 C   0  0  0  0  0  1  0  0  0  0  0  0
  -37.9550   17.0150  -31.9750 C   0  0  0  0  0  1  0  0  0  0  0  0
  -36.4240   16.8800  -32.1130 C   0  0  1  0  0  0  0  0  0  0  0  0
  -36.7130   14.7870  -33.4500 N   0  0  0  0  0  0  0  0  0  0  0  0
  -36.1980   14.2360  -34.5590 C   0  0  0  0  0  0  0  0  0  0  0  0
  -34.9870   14.2470  -34.7930 O   0  0  0  0  0  0  0  0  0  0  0  0
  -37.7100   14.6720  -33.3130 H   0  0  0  0  0  0  0  0  0  0  0  0
  -37.1910   13.6010  -35.4930 C   0  0  1  0  0  0  0  0  0  0  0  0
  -38.4680   13.4900  -34.9650 F   0  0  0  0  0  0  0  0  0  0  0  0
  -37.0870   13.8630  -36.9780 C   0  0  0  0  0  2  0  0  0  0  0  0
  -36.7460   12.4970  -36.4270 C   0  0  0  0  0  2  0  0  0  0  0  0
  -41.9480   17.3110  -25.6090 C   0  0  0  0  0  2  0  0  0  0  0  0
  -40.4620   14.7250  -28.7630 C   0  0  0  0  0  3  0  0  0  0  0  0
  -41.6430   14.4120  -28.0720 C   0  0  0  0  0  3  0  0  0  0  0  0
  -39.8420   15.9660  -28.5460 C   0  0  0  0  0  3  0  0  0  0  0  0
  -42.1500   15.3080  -27.1130 C   0  0  0  0  0  3  0  0  0  0  0  0
  -40.3780   16.9090  -27.6420 C   0  0  0  0  0  0  0  0  0  0  0  0
  -41.5060   16.5400  -26.8520 C   0  0  0  0  0  0  0  0  0  0  0  0
  -40.3400   19.2450  -28.2610 N   0  0  0  0  0  0  0  0  0  0  0  0
  -39.9590   19.5980  -29.6370 C   0  0  0  0  0  2  0  0  0  0  0  0
  -41.1630   19.4860  -30.6270 C   0  0  0  0  0  2  0  0  0  0  0  0
  -42.2370   18.6370  -30.0970 N   0  0  0  0  0  0  0  0  0  0  0  0
  -42.7440   18.9460  -28.7620 C   0  0  0  0  0  2  0  0  0  0  0  0
  -41.6860   19.7260  -27.9540 C   0  0  0  0  0  2  0  0  0  0  0  0
  -39.7090   18.2560  -27.6020 C   0  0  0  0  0  0  0  0  0  0  0  0
  -38.5320   18.3330  -27.2440 O   0  0  0  0  0  0  0  0  0  0  0  0
  -43.1050   18.0110  -31.0170 C   0  0  0  0  0  0  0  0  0  0  0  0
  -44.4290   18.4440  -31.2390 C   0  0  0  0  0  3  0  0  0  0  0  0
  -45.2420   17.7430  -32.1690 C   0  0  0  0  0  0  0  0  0  0  0  0
  -44.7260   16.6700  -32.8340 N   0  0  0  0  0  0  0  0  0  0  0  0
  -43.4800   16.2360  -32.6260 N   0  0  0  0  0  0  0  0  0  0  0  0
  -42.6870   16.8760  -31.7450 C   0  0  0  0  0  0  0  0  0  0  0  0
  -41.4370   16.3250  -31.5370 N   0  0  0  0  0  0  0  0  0  0  0  0
  -41.0610   16.6240  -30.6450 H   0  0  0  0  0  0  0  0  0  0  0  0
  -41.4000   15.3250  -31.6680 H   0  0  0  0  0  0  0  0  0  0  0  0
  -46.6700   18.1050  -32.4720 C   0  0  0  0  0  0  0  0  0  0  0  0
  -47.5300   17.3580  -33.3420 C   0  0  0  0  0  0  0  0  0  0  0  0
  -48.8660   17.7510  -33.5640 C   0  0  0  0  0  3  0  0  0  0  0  0
  -49.3910   18.8900  -32.9400 C   0  0  0  0  0  3  0  0  0  0  0  0
  -48.5730   19.6500  -32.0920 C   0  0  0  0  0  3  0  0  0  0  0  0
  -47.2400   19.2590  -31.8670 C   0  0  0  0  0  3  0  0  0  0  0  0
  -47.1280   16.2330  -34.0040 O   0  0  0  0  0  0  0  0  0  0  0  0
  -46.2060   16.0470  -33.8180 H   0  0  0  0  0  0  0  0  0  0  0  0
  2  1  1  0
  3  5  1  0
  4  1  1  0
  4 10  1  0
  4  5  1  0
  5  7  1  1
  6  5  1  0
  8  3  1  0
  8  2  1  0
  8  9  1  6
 11 10  1  0
 11 12  1  0
 12 13  2  0
 13 19  1  0
 14 16  2  0
 15 14  1  0
 15 11  2  0
 16 13  1  0
 17 22  1  0
 17 20  1  0
 18 20  2  0
 19 21  1  0
 19 17  2  0
 21 18  1  0
 23 15  1  0
 24 25  2  0
 24 26  1  0
 26 23  1  0
 27 26  1  0
 28 32  2  0
 28 31  1  0
 29 33  1  0
 29 24  1  0
 30 31  1  0
 30 34  1  0
 31 29  1  0
 34 35  1  0
 34 33  1  0
 36 35  1  0
 37 41  1  0
 37 28  1  0
 41 39  1  6
 41 40  1  0
 41 38  1  0
 42 45  1  0
 42 37  1  0
 43 42  1  0
 44 43  2  0
 46 47  1  1
 46 43  1  0
 48 49  1  0
 48 46  1  0
 49 46  1  0
 50  8  1  0
 51 53  2  0
 51 52  1  0
 52 54  2  0
 53 55  1  0
 54 56  1  0
 55 63  1  0
 55 56  2  0
 56 50  1  0
 57 62  1  0
 57 63  1  0
 58 57  1  0
 59 60  1  0
 59 58  1  0
 60 61  1  0
 61 62  1  0
 63 64  2  0
 65 60  1  0
 66 65  1  0
 67 66  2  0
 68 69  2  0
 68 67  1  0
 69 70  1  0
 70 71  1  0
 70 65  2  0
 71 72  1  0
 73 71  1  0
 74 67  1  0
 74 79  1  0
 75 74  2  0
 76 75  1  0
 76 77  2  0
 77 78  1  0
 78 79  2  0
 80 81  1  0
 80 75  1  0
M  ISO  4   4 101  10 101  57 100  63 100
M  END
>  <TORSDO>  (68) 
F 17

>  <SCORE>  (68) 
-14.787

>  <name>  (68) 
67

>  <ligand_id>  (68) 
67

>  <original_smiles>  (68) 
[H]Oc1c([H])c([H])c([H])c([H])c1-c1nnc(N([H])[H])c(N2C([H])([H])C([H])([H])N(C(=O)c3c([H])c([H])c([H])c([H])c3C([H])([H])[N+]3([H])C([H])([H])C([H])([H])C([H])(Oc4c([H])c(-c5sc([H])nc5C([H])([H])[H])c([H])c([H])c4C([H])([H])N([H])C(=O)C4([H])N(C(=O)C([H])(N([H])C(=O)C5(F)C([H])([H])C5([H])[H])C(C([H])([H])[H])(C([H])([H])[H])C([H])([H])[H])C([H])([H])C([H])(O[H])C4([H])[H])C(C([H])([H])[H])(C([H])([H])[H])C3([H])[H])C([H])([H])C2([H])[H])c1[H]

>  <smiles>  (68) 
[H]Oc1c([H])c([H])c([H])c([H])c1-c1nnc(N([H])[H])c(N2C([H])([H])C([H])([H])N(C(=O)c3c([H])c([H])c([H])c([H])c3C([H])([H])[N+]3([H])C([H])([H])C([H])([H])C([H])(Oc4c([H])c(-c5sc([H])nc5C([H])([H])[H])c([H])c([H])c4C([H])([H])N([H])C(=O)C4([H])N(C(=O)C([H])(N([H])C(=O)C5(F)C([H])([H])C5([H])[H])C(C([H])([H])[H])(C([H])([H])[H])C([H])([H])[H])C([H])([H])C([H])(O[H])C4([H])[H])C(C([H])([H])[H])(C([H])([H])[H])C3([H])[H])C([H])([H])C2([H])[H])c1[H]

$$$$
68:0:0
     RDKit          3D

 82 91  0  0  1  0  0  0  0  0999 V2000
  -40.8350   14.5510  -22.5290 C   0  0  0  0  0  2  0  0  0  0  0  0
  -39.3610   14.2020  -22.4530 C   0  0  0  0  0  3  0  0  0  0  0  0
  -39.1370   15.6220  -21.9190 C   0  0  0  0  0  3  0  0  0  0  0  0
  -39.1260   15.8990  -20.4190 C   0  0  0  0  0  1  0  0  0  0  0  0
  -40.4490   15.9730  -22.4900 N   0  0  0  0  0  0  0  0  0  0  0  0
  -40.0070   17.5160  -26.4710 C   0  0  0  0  0  0  0  0  0  0  0  0
  -40.3770   16.6020  -23.7830 C   0  0  0  0  0  0  0  0  0  0  0  0
  -41.0890   16.6860  -26.1430 C   0  0  0  0  0  0  0  0  0  0  0  0
  -39.1670   17.9870  -25.4480 C   0  0  0  0  0  0  0  0  0  0  0  0
  -41.3160   16.3160  -24.8130 C   0  0  0  0  0  0  0  0  0  0  0  0
  -39.3630   17.5440  -24.1260 C   0  0  0  0  0  0  0  0  0  0  0  0
  -40.1200   16.6300  -28.7800 C   0  0  0  0  0  2  0  0  0  0  0  0
  -39.7770   17.8580  -27.9220 C   0  0  0  0  0  3  0  0  0  0  0  0
  -41.3610   15.8110  -28.3410 C   0  0  0  0  0  3  0  0  0  0  0  0
  -41.0830   14.3030  -28.2740 C   0  0  0  0  0  1  0  0  0  0  0  0
  -41.9450   16.2100  -27.1050 O   0  0  0  0  0  0  0  0  0  0  0  0
  -38.1470   18.8320  -25.7300 F   0  0  0  0  0  0  0  0  0  0  0  0
  -42.4570   15.6280  -24.5500 F   0  0  0  0  0  0  0  0  0  0  0  0
  -38.5310   18.0330  -23.1730 F   0  0  0  0  0  0  0  0  0  0  0  0
  -40.3290   19.1590  -28.3490 N   0  0  0  0  0  0  0  0  0  0  0  0
  -40.0520   19.5280  -29.7510 C   0  0  0  0  0  2  0  0  0  0  0  0
  -41.2940   19.5010  -30.6950 C   0  0  0  0  0  2  0  0  0  0  0  0
  -42.3300   18.5940  -30.2060 N   0  0  0  0  0  0  0  0  0  0  0  0
  -42.7860   18.8100  -28.8350 C   0  0  0  0  0  2  0  0  0  0  0  0
  -41.7060   19.4960  -27.9620 C   0  0  0  0  0  2  0  0  0  0  0  0
  -43.2180   17.9960  -31.1260 C   0  0  0  0  0  0  0  0  0  0  0  0
  -44.5420   18.4500  -31.3120 C   0  0  0  0  0  3  0  0  0  0  0  0
  -45.3770   17.7810  -32.2480 C   0  0  0  0  0  0  0  0  0  0  0  0
  -44.8890   16.7180  -32.9460 N   0  0  0  0  0  0  0  0  0  0  0  0
  -43.6450   16.2670  -32.7760 N   0  0  0  0  0  0  0  0  0  0  0  0
  -42.8290   16.8760  -31.8970 C   0  0  0  0  0  0  0  0  0  0  0  0
  -41.5670   16.3260  -31.7870 N   0  0  0  0  0  0  0  0  0  0  0  0
  -40.9110   16.9450  -31.3330 H   0  0  0  0  0  0  0  0  0  0  0  0
  -41.2130   15.8510  -32.6040 H   0  0  0  0  0  0  0  0  0  0  0  0
  -46.8030   18.1680  -32.5280 C   0  0  0  0  0  0  0  0  0  0  0  0
  -47.6860   17.4380  -33.3910 C   0  0  0  0  0  0  0  0  0  0  0  0
  -49.0190   17.8530  -33.5930 C   0  0  0  0  0  3  0  0  0  0  0  0
  -49.5180   18.9970  -32.9550 C   0  0  0  0  0  3  0  0  0  0  0  0
  -48.6770   19.7360  -32.1120 C   0  0  0  0  0  3  0  0  0  0  0  0
  -47.3460   19.3250  -31.9080 C   0  0  0  0  0  3  0  0  0  0  0  0
  -47.3120   16.3110  -34.0680 O   0  0  0  0  0  0  0  0  0  0  0  0
  -46.3920   16.1090  -33.8940 H   0  0  0  0  0  0  0  0  0  0  0  0
  -38.7230   13.9930  -23.7300 O   0  0  0  0  0  0  0  0  0  0  0  0
  -37.4330   13.4970  -23.6840 C   0  0  0  0  0  0  0  0  0  0  0  0
  -36.6970   13.4500  -22.4740 C   0  0  0  0  0  3  0  0  0  0  0  0
  -35.4260   12.8580  -22.3970 C   0  0  0  0  0  0  0  0  0  0  0  0
  -35.5450   12.4130  -24.7950 C   0  0  0  0  0  3  0  0  0  0  0  0
  -36.8410   12.9790  -24.8630 C   0  0  0  0  0  0  0  0  0  0  0  0
  -34.8500   12.3510  -23.5760 C   0  0  0  0  0  3  0  0  0  0  0  0
  -35.2310   12.2880  -19.8910 C   0  0  0  0  0  0  0  0  0  0  0  0
  -33.0770   12.7000  -19.3210 C   0  0  0  0  0  3  0  0  0  0  0  0
  -34.7490   12.7330  -21.1080 C   0  0  0  0  0  0  0  0  0  0  0  0
  -34.2630   12.2720  -18.8840 N   0  0  0  0  0  0  0  0  0  0  0  0
  -33.0610   13.1750  -21.0090 S   0  0  0  0  0  0  0  0  0  0  0  0
  -36.6090   11.8130  -19.5440 C   0  0  0  0  0  1  0  0  0  0  0  0
  -37.6150   12.9910  -26.1820 C   0  0  0  0  0  2  0  0  0  0  0  0
  -36.2210   13.7230  -28.1000 C   0  0  0  0  0  0  0  0  0  0  0  0
  -36.4720   14.9200  -27.9440 O   0  0  0  0  0  0  0  0  0  0  0  0
  -36.7810   12.7610  -27.3590 N   0  0  0  0  0  0  0  0  0  0  0  0
  -36.5440   11.8010  -27.5710 H   0  0  0  0  0  0  0  0  0  0  0  0
  -36.1410   14.4410  -31.1260 C   0  0  0  0  0  0  0  0  0  0  0  0
  -35.1740   13.2700  -29.1340 C   0  0  0  0  0  3  0  0  0  0  0  0
  -33.6880   14.4870  -30.6030 C   0  0  0  0  0  2  0  0  0  0  0  0
  -35.0860   14.1350  -30.3270 N   0  0  0  0  0  0  0  0  0  0  0  0
  -37.2670   13.9740  -30.9180 O   0  0  0  0  0  0  0  0  0  0  0  0
  -33.7750   13.3100  -28.4940 C   0  0  0  0  0  2  0  0  0  0  0  0
  -32.8410   13.6650  -29.6340 C   0  0  0  0  0  3  0  0  0  0  0  0
  -32.4050   12.4920  -30.3030 O   0  0  0  0  0  0  0  0  0  0  0  0
  -33.1710   12.0240  -30.6220 H   0  0  0  0  0  0  0  0  0  0  0  0
  -35.9470   15.3620  -32.3610 C   0  0  0  0  0  3  0  0  0  0  0  0
  -35.7370   17.4670  -30.8710 C   0  0  0  0  0  1  0  0  0  0  0  0
  -35.9680   17.7080  -33.3320 C   0  0  0  0  0  1  0  0  0  0  0  0
  -37.9300   16.9780  -31.9670 C   0  0  0  0  0  1  0  0  0  0  0  0
  -36.4020   16.8480  -32.1250 C   0  0  1  0  0  0  0  0  0  0  0  0
  -36.7030   14.7610  -33.4720 N   0  0  0  0  0  0  0  0  0  0  0  0
  -36.1910   14.2100  -34.5810 C   0  0  0  0  0  0  0  0  0  0  0  0
  -34.9800   14.2200  -34.8200 O   0  0  0  0  0  0  0  0  0  0  0  0
  -37.6980   14.6470  -33.3340 H   0  0  0  0  0  0  0  0  0  0  0  0
  -37.1890   13.5770  -35.5140 C   0  0  1  0  0  0  0  0  0  0  0  0
  -38.4630   13.4640  -34.9810 F   0  0  0  0  0  0  0  0  0  0  0  0
  -37.0900   13.8430  -36.9990 C   0  0  0  0  0  2  0  0  0  0  0  0
  -36.7460   12.4740  -36.4530 C   0  0  0  0  0  2  0  0  0  0  0  0
  1  5  1  0
  1  2  1  0
  2 43  1  0
  2  3  1  0
  3  4  1  0
  5  3  1  0
  6  8  2  0
  6  9  1  0
  7  5  1  0
  8 10  1  0
  9 11  2  0
 10 18  1  0
 10  7  2  0
 11  7  1  0
 11 19  1  0
 12 14  1  0
 13 12  1  0
 13  6  1  0
 14 15  1  0
 14 16  1  0
 16  8  1  0
 17  9  1  0
 20 21  1  0
 20 25  1  0
 20 13  1  0
 22 23  1  0
 22 21  1  0
 23 24  1  0
 24 25  1  0
 26 23  1  0
 27 26  1  0
 28 27  2  0
 29 30  2  0
 29 28  1  0
 30 31  1  0
 31 32  1  0
 31 26  2  0
 32 33  1  0
 34 32  1  0
 35 28  1  0
 35 40  1  0
 36 35  2  0
 37 36  1  0
 37 38  2  0
 38 39  1  0
 39 40  2  0
 41 42  1  0
 41 36  1  0
 43 44  1  0
 44 45  1  0
 45 46  2  0
 46 52  1  0
 47 49  2  0
 48 47  1  0
 48 44  2  0
 49 46  1  0
 50 55  1  0
 50 53  1  0
 51 53  2  0
 52 54  1  0
 52 50  2  0
 54 51  1  0
 56 48  1  0
 57 58  2  0
 57 59  1  0
 59 56  1  0
 60 59  1  0
 61 65  2  0
 61 64  1  0
 62 66  1  0
 62 57  1  0
 63 64  1  0
 63 67  1  0
 64 62  1  0
 67 68  1  0
 67 66  1  0
 69 68  1  0
 70 74  1  0
 70 61  1  0
 74 72  1  6
 74 73  1  0
 74 71  1  0
 75 78  1  0
 75 70  1  0
 76 75  1  0
 77 76  2  0
 79 80  1  1
 79 76  1  0
 81 82  1  0
 81 79  1  0
 82 79  1  0
M  ISO  4   2 101  13 100  20 100  43 101
M  END
>  <TORSDO>  (69) 
F 16

>  <SCORE>  (69) 
-14.815

>  <name>  (69) 
68

>  <ligand_id>  (69) 
68

>  <original_smiles>  (69) 
[H]Oc1c([H])c([H])c([H])c([H])c1-c1nnc(N([H])[H])c(N2C([H])([H])C([H])([H])N(C3([H])c4c(F)c(F)c(N5C([H])([H])C([H])(Oc6c([H])c(-c7sc([H])nc7C([H])([H])[H])c([H])c([H])c6C([H])([H])N([H])C(=O)C6([H])N(C(=O)C([H])(N([H])C(=O)C7(F)C([H])([H])C7([H])[H])C(C([H])([H])[H])(C([H])([H])[H])C([H])([H])[H])C([H])([H])C([H])(O[H])C6([H])[H])C5([H])C([H])([H])[H])c(F)c4OC([H])(C([H])([H])[H])C3([H])[H])C([H])([H])C2([H])[H])c1[H]

>  <smiles>  (69) 
[H]Oc1c([H])c([H])c([H])c([H])c1-c1nnc(N([H])[H])c(N2C([H])([H])C([H])([H])N(C3([H])c4c(F)c(F)c(N5C([H])([H])C([H])(Oc6c([H])c(-c7sc([H])nc7C([H])([H])[H])c([H])c([H])c6C([H])([H])N([H])C(=O)C6([H])N(C(=O)C([H])(N([H])C(=O)C7(F)C([H])([H])C7([H])[H])C(C([H])([H])[H])(C([H])([H])[H])C([H])([H])[H])C([H])([H])C([H])(O[H])C6([H])[H])C5([H])C([H])([H])[H])c(F)c4OC([H])(C([H])([H])[H])C3([H])[H])C([H])([H])C2([H])[H])c1[H]

$$$$
69:0:0
     RDKit          3D

 73 81  0  0  1  0  0  0  0  0999 V2000
  -37.4470   13.6150  -23.7360 C   0  0  0  0  0  0  0  0  0  0  0  0
  -36.7680   13.5230  -22.4930 C   0  0  0  0  0  3  0  0  0  0  0  0
  -35.5020   12.8980  -22.3760 C   0  0  0  0  0  0  0  0  0  0  0  0
  -35.5900   12.3950  -24.7630 C   0  0  0  0  0  3  0  0  0  0  0  0
  -36.8660   12.9950  -24.8740 C   0  0  0  0  0  0  0  0  0  0  0  0
  -34.9120   12.3610  -23.5360 C   0  0  0  0  0  3  0  0  0  0  0  0
  -35.2620   12.3040  -19.8720 C   0  0  0  0  0  0  0  0  0  0  0  0
  -33.1010   12.7160  -19.3270 C   0  0  0  0  0  3  0  0  0  0  0  0
  -34.8070   12.7690  -21.0910 C   0  0  0  0  0  0  0  0  0  0  0  0
  -34.2790   12.2790  -18.8780 N   0  0  0  0  0  0  0  0  0  0  0  0
  -33.1110   13.2070  -21.0090 S   0  0  0  0  0  0  0  0  0  0  0  0
  -36.6320   11.8120  -19.5210 C   0  0  0  0  0  1  0  0  0  0  0  0
  -37.6180   12.9150  -26.2020 C   0  0  0  0  0  2  0  0  0  0  0  0
  -36.2230   13.6970  -28.0850 C   0  0  0  0  0  0  0  0  0  0  0  0
  -36.4860   14.8900  -27.9220 O   0  0  0  0  0  0  0  0  0  0  0  0
  -36.7600   12.7140  -27.3570 N   0  0  0  0  0  0  0  0  0  0  0  0
  -36.5030   11.7610  -27.5760 H   0  0  0  0  0  0  0  0  0  0  0  0
  -36.1590   14.4450  -31.1010 C   0  0  0  0  0  0  0  0  0  0  0  0
  -35.1810   13.2600  -29.1220 C   0  0  0  0  0  3  0  0  0  0  0  0
  -33.7030   14.4840  -30.5850 C   0  0  0  0  0  2  0  0  0  0  0  0
  -35.1000   14.1330  -30.3070 N   0  0  0  0  0  0  0  0  0  0  0  0
  -37.2840   13.9770  -30.8950 O   0  0  0  0  0  0  0  0  0  0  0  0
  -33.7840   13.2930  -28.4810 C   0  0  0  0  0  2  0  0  0  0  0  0
  -32.8530   13.6580  -29.6190 C   0  0  0  0  0  3  0  0  0  0  0  0
  -32.4210   12.4880  -30.2940 O   0  0  0  0  0  0  0  0  0  0  0  0
  -33.1870   12.0210  -30.6130 H   0  0  0  0  0  0  0  0  0  0  0  0
  -35.9680   15.3710  -32.3300 C   0  0  0  0  0  3  0  0  0  0  0  0
  -36.7230   14.7760  -33.4460 N   0  0  0  0  0  0  0  0  0  0  0  0
  -36.2090   14.2250  -34.5550 C   0  0  0  0  0  0  0  0  0  0  0  0
  -34.9970   14.2330  -34.7920 O   0  0  0  0  0  0  0  0  0  0  0  0
  -37.7210   14.6750  -33.3130 H   0  0  0  0  0  0  0  0  0  0  0  0
  -37.2050   13.5950  -35.4920 C   0  0  1  0  0  0  0  0  0  0  0  0
  -38.4800   13.4820  -34.9600 F   0  0  0  0  0  0  0  0  0  0  0  0
  -37.1020   13.8650  -36.9750 C   0  0  0  0  0  2  0  0  0  0  0  0
  -36.7610   12.4960  -36.4310 C   0  0  0  0  0  2  0  0  0  0  0  0
  -35.7490   17.4650  -30.8320 C   0  0  0  0  0  1  0  0  0  0  0  0
  -35.9950   17.7190  -33.2890 C   0  0  0  0  0  1  0  0  0  0  0  0
  -37.9520   16.9910  -31.9120 C   0  0  0  0  0  1  0  0  0  0  0  0
  -36.4240   16.8550  -32.0830 C   0  0  1  0  0  0  0  0  0  0  0  0
  -38.6730   14.2640  -23.7840 O   0  0  0  0  0  0  0  0  0  0  0  0
  -40.0960   16.3470  -26.5140 C   0  0  0  0  0  3  0  0  0  0  0  0
  -39.9160   15.3370  -25.5400 C   0  0  0  0  0  3  0  0  0  0  0  0
  -39.2810   17.4900  -26.4530 C   0  0  0  0  0  0  0  0  0  0  0  0
  -38.3740   17.6480  -25.4090 C   0  0  0  0  0  0  0  0  0  0  0  0
  -38.1210   16.6090  -24.4730 C   0  0  0  0  0  0  0  0  0  0  0  0
  -38.8760   15.3970  -24.5740 C   0  0  0  0  0  0  0  0  0  0  0  0
  -37.7310   19.0210  -25.4950 C   0  0  0  0  0  2  0  0  0  0  0  0
  -38.4870   19.7440  -26.6460 C   0  0  0  0  0  2  0  0  0  0  0  0
  -39.1450   18.6190  -27.4600 C   0  0  0  0  0  3  0  0  0  0  0  0
  -37.0570   16.7900  -23.4030 C   0  0  0  0  0  1  0  0  0  0  0  0
  -40.2980   18.9670  -28.2980 N   0  0  0  0  0  0  0  0  0  0  0  0
  -39.9920   19.5620  -29.6070 C   0  0  0  0  0  2  0  0  0  0  0  0
  -41.2290   19.5610  -30.5540 C   0  0  0  0  0  2  0  0  0  0  0  0
  -42.2990   18.6980  -30.0500 N   0  0  0  0  0  0  0  0  0  0  0  0
  -42.6930   18.8610  -28.6440 C   0  0  0  0  0  2  0  0  0  0  0  0
  -41.5590   19.4810  -27.7680 C   0  0  0  0  0  2  0  0  0  0  0  0
  -43.1470   18.0360  -30.9640 C   0  0  0  0  0  0  0  0  0  0  0  0
  -44.4670   18.4700  -31.2000 C   0  0  0  0  0  3  0  0  0  0  0  0
  -45.2740   17.7610  -32.1290 C   0  0  0  0  0  0  0  0  0  0  0  0
  -44.7640   16.6720  -32.7700 N   0  0  0  0  0  0  0  0  0  0  0  0
  -43.5210   16.2320  -32.5440 N   0  0  0  0  0  0  0  0  0  0  0  0
  -42.7260   16.8870  -31.6740 C   0  0  0  0  0  0  0  0  0  0  0  0
  -41.4670   16.3490  -31.4690 N   0  0  0  0  0  0  0  0  0  0  0  0
  -41.0230   16.7220  -30.6390 H   0  0  0  0  0  0  0  0  0  0  0  0
  -41.3830   15.3490  -31.5820 H   0  0  0  0  0  0  0  0  0  0  0  0
  -46.6930   18.1380  -32.4520 C   0  0  0  0  0  0  0  0  0  0  0  0
  -47.5520   17.3970  -33.3280 C   0  0  0  0  0  0  0  0  0  0  0  0
  -48.8810   17.8020  -33.5670 C   0  0  0  0  0  3  0  0  0  0  0  0
  -49.4020   18.9490  -32.9510 C   0  0  0  0  0  3  0  0  0  0  0  0
  -48.5850   19.7000  -32.0960 C   0  0  0  0  0  3  0  0  0  0  0  0
  -47.2580   19.2980  -31.8580 C   0  0  0  0  0  3  0  0  0  0  0  0
  -47.1520   16.2660  -33.9830 O   0  0  0  0  0  0  0  0  0  0  0  0
  -46.2360   16.0730  -33.7800 H   0  0  0  0  0  0  0  0  0  0  0  0
  1  2  1  0
  2  3  2  0
  3  9  1  0
  4  6  2  0
  5  4  1  0
  5  1  2  0
  6  3  1  0
  7 12  1  0
  7 10  1  0
  8 10  2  0
  9 11  1  0
  9  7  2  0
 11  8  1  0
 13  5  1  0
 14 15  2  0
 14 16  1  0
 16 13  1  0
 17 16  1  0
 18 22  2  0
 18 21  1  0
 19 23  1  0
 19 14  1  0
 20 21  1  0
 20 24  1  0
 21 19  1  0
 24 25  1  0
 24 23  1  0
 26 25  1  0
 27 39  1  0
 27 18  1  0
 28 31  1  0
 28 27  1  0
 29 28  1  0
 30 29  2  0
 32 33  1  1
 32 29  1  0
 34 35  1  0
 34 32  1  0
 35 32  1  0
 39 37  1  6
 39 38  1  0
 39 36  1  0
 40  1  1  0
 41 43  2  0
 41 42  1  0
 42 46  2  0
 43 44  1  0
 44 45  2  0
 45 50  1  0
 46 45  1  0
 46 40  1  0
 47 44  1  0
 48 47  1  0
 49 48  1  0
 49 43  1  0
 51 52  1  0
 51 56  1  0
 51 49  1  0
 53 54  1  0
 53 52  1  0
 54 55  1  0
 55 56  1  0
 57 54  1  0
 58 57  1  0
 59 58  2  0
 60 61  2  0
 60 59  1  0
 61 62  1  0
 62 63  1  0
 62 57  2  0
 63 64  1  0
 65 63  1  0
 66 59  1  0
 66 71  1  0
 67 66  2  0
 68 67  1  0
 68 69  2  0
 69 70  1  0
 70 71  2  0
 72 73  1  0
 72 67  1  0
M  ISO  4  40 101  46 101  49 100  51 100
M  END
>  <TORSDO>  (70) 
F 15

>  <SCORE>  (70) 
-14.771

>  <name>  (70) 
69

>  <ligand_id>  (70) 
69

>  <original_smiles>  (70) 
[H]Oc1c([H])c([H])c([H])c([H])c1-c1nnc(N([H])[H])c(N2C([H])([H])C([H])([H])N(C3([H])c4c([H])c([H])c(Oc5c([H])c(-c6sc([H])nc6C([H])([H])[H])c([H])c([H])c5C([H])([H])N([H])C(=O)C5([H])N(C(=O)C([H])(N([H])C(=O)C6(F)C([H])([H])C6([H])[H])C(C([H])([H])[H])(C([H])([H])[H])C([H])([H])[H])C([H])([H])C([H])(O[H])C5([H])[H])c(C([H])([H])[H])c4C([H])([H])C3([H])[H])C([H])([H])C2([H])[H])c1[H]

>  <smiles>  (70) 
[H]Oc1c([H])c([H])c([H])c([H])c1-c1nnc(N([H])[H])c(N2C([H])([H])C([H])([H])N(C3([H])c4c([H])c([H])c(Oc5c([H])c(-c6sc([H])nc6C([H])([H])[H])c([H])c([H])c5C([H])([H])N([H])C(=O)C5([H])N(C(=O)C([H])(N([H])C(=O)C6(F)C([H])([H])C6([H])[H])C(C([H])([H])[H])(C([H])([H])[H])C([H])([H])[H])C([H])([H])C([H])(O[H])C5([H])[H])c(C([H])([H])[H])c4C([H])([H])C3([H])[H])C([H])([H])C2([H])[H])c1[H]

$$$$
70:0:0
     RDKit          3D

 75 82  0  0  1  0  0  0  0  0999 V2000
  -37.4250   13.5840  -23.7350 C   0  0  0  0  0  0  0  0  0  0  0  0
  -36.7430   13.4940  -22.4950 C   0  0  0  0  0  3  0  0  0  0  0  0
  -35.4640   12.8940  -22.4030 C   0  0  0  0  0  0  0  0  0  0  0  0
  -35.5390   12.4740  -24.8140 C   0  0  0  0  0  3  0  0  0  0  0  0
  -36.8280   13.0450  -24.8950 C   0  0  0  0  0  0  0  0  0  0  0  0
  -34.8650   12.4060  -23.5830 C   0  0  0  0  0  3  0  0  0  0  0  0
  -35.2400   12.2360  -19.9160 C   0  0  0  0  0  0  0  0  0  0  0  0
  -33.0800   12.6210  -19.3510 C   0  0  0  0  0  3  0  0  0  0  0  0
  -34.7750   12.7280  -21.1200 C   0  0  0  0  0  0  0  0  0  0  0  0
  -34.2620   12.1820  -18.9190 N   0  0  0  0  0  0  0  0  0  0  0  0
  -33.0790   13.1520  -21.0200 S   0  0  0  0  0  0  0  0  0  0  0  0
  -36.6140   11.7450  -19.5820 C   0  0  0  0  0  1  0  0  0  0  0  0
  -37.5990   13.0660  -26.2150 C   0  0  0  0  0  2  0  0  0  0  0  0
  -36.2040   13.7840  -28.1290 C   0  0  0  0  0  0  0  0  0  0  0  0
  -36.4460   14.9850  -27.9810 O   0  0  0  0  0  0  0  0  0  0  0  0
  -36.7630   12.8280  -27.3830 N   0  0  0  0  0  0  0  0  0  0  0  0
  -36.5300   11.8660  -27.5900 H   0  0  0  0  0  0  0  0  0  0  0  0
  -36.1240   14.4830  -31.1560 C   0  0  0  0  0  0  0  0  0  0  0  0
  -35.1670   13.3120  -29.1610 C   0  0  0  0  0  3  0  0  0  0  0  0
  -33.6680   14.4960  -30.6410 C   0  0  0  0  0  2  0  0  0  0  0  0
  -35.0710   14.1680  -30.3590 N   0  0  0  0  0  0  0  0  0  0  0  0
  -37.2560   14.0300  -30.9450 O   0  0  0  0  0  0  0  0  0  0  0  0
  -33.7670   13.3360  -28.5240 C   0  0  0  0  0  2  0  0  0  0  0  0
  -32.8320   13.6680  -29.6670 C   0  0  0  0  0  3  0  0  0  0  0  0
  -32.4160   12.4830  -30.3270 O   0  0  0  0  0  0  0  0  0  0  0  0
  -33.1880   12.0250  -30.6410 H   0  0  0  0  0  0  0  0  0  0  0  0
  -35.9220   15.3920  -32.3970 C   0  0  0  0  0  3  0  0  0  0  0  0
  -35.7200   17.4950  -30.9060 C   0  0  0  0  0  1  0  0  0  0  0  0
  -35.8960   17.7340  -33.3720 C   0  0  0  0  0  1  0  0  0  0  0  0
  -37.8970   17.0350  -32.0410 C   0  0  0  0  0  1  0  0  0  0  0  0
  -36.3670   16.8830  -32.1730 C   0  0  1  0  0  0  0  0  0  0  0  0
  -36.6780   14.7880  -33.5070 N   0  0  0  0  0  0  0  0  0  0  0  0
  -36.1680   14.2500  -34.6230 C   0  0  0  0  0  0  0  0  0  0  0  0
  -34.9600   14.2800  -34.8730 O   0  0  0  0  0  0  0  0  0  0  0  0
  -37.6710   14.6630  -33.3610 H   0  0  0  0  0  0  0  0  0  0  0  0
  -37.1640   13.6060  -35.5520 C   0  0  1  0  0  0  0  0  0  0  0  0
  -38.4270   13.4530  -35.0020 F   0  0  0  0  0  0  0  0  0  0  0  0
  -37.0940   13.8980  -37.0320 C   0  0  0  0  0  2  0  0  0  0  0  0
  -36.7070   12.5310  -36.5140 C   0  0  0  0  0  2  0  0  0  0  0  0
  -38.6940   14.1090  -23.8420 O   0  0  0  0  0  0  0  0  0  0  0  0
  -38.8930   15.4600  -23.4210 C   0  0  0  0  0  2  0  0  0  0  0  0
  -37.4650   17.3430  -24.3070 C   0  0  0  0  0  3  0  0  0  0  0  0
  -39.1100   17.7230  -26.5840 C   0  0  0  0  0  0  0  0  0  0  0  0
  -37.1660   18.3610  -25.2310 C   0  0  0  0  0  0  0  0  0  0  0  0
  -38.5830   16.5060  -24.4960 C   0  0  0  0  0  0  0  0  0  0  0  0
  -37.9870   18.5530  -26.3590 C   0  0  0  0  0  0  0  0  0  0  0  0
  -39.4060   16.6910  -25.6440 C   0  0  0  0  0  0  0  0  0  0  0  0
  -35.9530   19.2450  -25.0200 C   0  0  0  0  0  1  0  0  0  0  0  0
  -37.6630   19.5290  -27.2450 F   0  0  0  0  0  0  0  0  0  0  0  0
  -40.7840   15.6610  -25.8690 Cl  0  0  0  0  0  0  0  0  0  0  0  0
  -40.3080   19.1280  -28.1970 N   0  0  0  0  0  0  0  0  0  0  0  0
  -40.0280   19.6670  -29.5420 C   0  0  0  0  0  2  0  0  0  0  0  0
  -41.2300   19.5660  -30.5230 C   0  0  0  0  0  2  0  0  0  0  0  0
  -42.2970   18.7140  -30.0020 N   0  0  0  0  0  0  0  0  0  0  0  0
  -42.7510   18.9400  -28.6290 C   0  0  0  0  0  2  0  0  0  0  0  0
  -41.6360   19.5640  -27.7430 C   0  0  0  0  0  2  0  0  0  0  0  0
  -39.8800   17.8820  -27.8720 C   0  0  0  0  0  0  0  0  0  0  0  0
  -39.9940   16.9180  -28.6370 O   0  0  0  0  0  0  0  0  0  0  0  0
  -43.1460   18.0690  -30.9300 C   0  0  0  0  0  0  0  0  0  0  0  0
  -44.4670   18.5000  -31.1740 C   0  0  0  0  0  3  0  0  0  0  0  0
  -45.2630   17.7980  -32.1180 C   0  0  0  0  0  0  0  0  0  0  0  0
  -44.7390   16.7200  -32.7690 N   0  0  0  0  0  0  0  0  0  0  0  0
  -43.4960   16.2860  -32.5400 N   0  0  0  0  0  0  0  0  0  0  0  0
  -42.7130   16.9330  -31.6510 C   0  0  0  0  0  0  0  0  0  0  0  0
  -41.4570   16.3930  -31.4390 N   0  0  0  0  0  0  0  0  0  0  0  0
  -41.0310   16.7150  -30.5720 H   0  0  0  0  0  0  0  0  0  0  0  0
  -41.3680   15.4000  -31.5970 H   0  0  0  0  0  0  0  0  0  0  0  0
  -46.6840   18.1640  -32.4490 C   0  0  0  0  0  0  0  0  0  0  0  0
  -47.5440   17.3980  -33.3060 C   0  0  0  0  0  0  0  0  0  0  0  0
  -48.8740   17.7940  -33.5520 C   0  0  0  0  0  3  0  0  0  0  0  0
  -49.3970   18.9540  -32.9640 C   0  0  0  0  0  3  0  0  0  0  0  0
  -48.5800   19.7300  -32.1300 C   0  0  0  0  0  3  0  0  0  0  0  0
  -47.2510   19.3380  -31.8840 C   0  0  0  0  0  3  0  0  0  0  0  0
  -47.1450   16.2510  -33.9320 O   0  0  0  0  0  0  0  0  0  0  0  0
  -46.2280   16.0620  -33.7320 H   0  0  0  0  0  0  0  0  0  0  0  0
  1  2  1  0
  2  3  2  0
  3  9  1  0
  4  6  2  0
  5  4  1  0
  5  1  2  0
  6  3  1  0
  7 12  1  0
  7 10  1  0
  8 10  2  0
  9 11  1  0
  9  7  2  0
 11  8  1  0
 13  5  1  0
 14 15  2  0
 14 16  1  0
 16 13  1  0
 17 16  1  0
 18 22  2  0
 18 21  1  0
 19 23  1  0
 19 14  1  0
 20 21  1  0
 20 24  1  0
 21 19  1  0
 24 25  1  0
 24 23  1  0
 26 25  1  0
 27 31  1  0
 27 18  1  0
 31 29  1  6
 31 30  1  0
 31 28  1  0
 32 35  1  0
 32 27  1  0
 33 32  1  0
 34 33  2  0
 36 37  1  1
 36 33  1  0
 38 39  1  0
 38 36  1  0
 39 36  1  0
 40  1  1  0
 40 41  1  0
 43 46  2  0
 43 47  1  0
 44 48  1  0
 44 42  2  0
 45 42  1  0
 45 41  1  0
 46 44  1  0
 47 45  2  0
 49 46  1  0
 50 47  1  0
 51 57  1  0
 51 56  1  0
 52 51  1  0
 53 54  1  0
 53 52  1  0
 54 55  1  0
 55 56  1  0
 57 43  1  0
 58 57  2  0
 59 54  1  0
 60 59  1  0
 61 60  2  0
 62 63  2  0
 62 61  1  0
 63 64  1  0
 64 65  1  0
 64 59  2  0
 65 66  1  0
 67 65  1  0
 68 61  1  0
 68 73  1  0
 69 68  2  0
 70 69  1  0
 70 71  2  0
 71 72  1  0
 72 73  2  0
 74 75  1  0
 74 69  1  0
M  ISO  4  40 101  41 101  51 100  57 100
M  END
>  <TORSDO>  (71) 
F 16

>  <SCORE>  (71) 
-14.791

>  <name>  (71) 
70

>  <ligand_id>  (71) 
70

>  <original_smiles>  (71) 
[H]Oc1c([H])c([H])c([H])c([H])c1-c1nnc(N([H])[H])c(N2C([H])([H])C([H])([H])N(C(=O)c3c(F)c(C([H])([H])[H])c([H])c(C([H])([H])Oc4c([H])c(-c5sc([H])nc5C([H])([H])[H])c([H])c([H])c4C([H])([H])N([H])C(=O)C4([H])N(C(=O)C([H])(N([H])C(=O)C5(F)C([H])([H])C5([H])[H])C(C([H])([H])[H])(C([H])([H])[H])C([H])([H])[H])C([H])([H])C([H])(O[H])C4([H])[H])c3Cl)C([H])([H])C2([H])[H])c1[H]

>  <smiles>  (71) 
[H]Oc1c([H])c([H])c([H])c([H])c1-c1nnc(N([H])[H])c(N2C([H])([H])C([H])([H])N(C(=O)c3c(F)c(C([H])([H])[H])c([H])c(C([H])([H])Oc4c([H])c(-c5sc([H])nc5C([H])([H])[H])c([H])c([H])c4C([H])([H])N([H])C(=O)C4([H])N(C(=O)C([H])(N([H])C(=O)C5(F)C([H])([H])C5([H])[H])C(C([H])([H])[H])(C([H])([H])[H])C([H])([H])[H])C([H])([H])C([H])(O[H])C4([H])[H])c3Cl)C([H])([H])C2([H])[H])c1[H]

$$$$
71:0:0
     RDKit          3D

 70 77  0  0  1  0  0  0  0  0999 V2000
  -37.3510   13.5690  -23.7610 C   0  0  0  0  0  0  0  0  0  0  0  0
  -36.6790   13.4940  -22.5140 C   0  0  0  0  0  3  0  0  0  0  0  0
  -35.4120   12.8670  -22.4020 C   0  0  0  0  0  0  0  0  0  0  0  0
  -35.5040   12.3650  -24.7970 C   0  0  0  0  0  3  0  0  0  0  0  0
  -36.7800   12.9650  -24.8990 C   0  0  0  0  0  0  0  0  0  0  0  0
  -34.8260   12.3300  -23.5670 C   0  0  0  0  0  3  0  0  0  0  0  0
  -35.1640   12.2560  -19.9050 C   0  0  0  0  0  0  0  0  0  0  0  0
  -33.0070   12.6780  -19.3560 C   0  0  0  0  0  3  0  0  0  0  0  0
  -34.7140   12.7360  -21.1200 C   0  0  0  0  0  0  0  0  0  0  0  0
  -34.1810   12.2310  -18.9110 N   0  0  0  0  0  0  0  0  0  0  0  0
  -33.0230   13.1850  -21.0340 S   0  0  0  0  0  0  0  0  0  0  0  0
  -36.5300   11.7520  -19.5560 C   0  0  0  0  0  1  0  0  0  0  0  0
  -37.5550   12.9560  -26.2150 C   0  0  0  0  0  2  0  0  0  0  0  0
  -36.1700   13.7130  -28.1190 C   0  0  0  0  0  0  0  0  0  0  0  0
  -36.4250   14.9080  -27.9600 O   0  0  0  0  0  0  0  0  0  0  0  0
  -36.7140   12.7420  -27.3820 N   0  0  0  0  0  0  0  0  0  0  0  0
  -36.4690   11.7860  -27.5990 H   0  0  0  0  0  0  0  0  0  0  0  0
  -36.1180   14.4450  -31.1350 C   0  0  0  0  0  0  0  0  0  0  0  0
  -35.1320   13.2680  -29.1570 C   0  0  0  0  0  3  0  0  0  0  0  0
  -33.6590   14.4930  -30.6270 C   0  0  0  0  0  2  0  0  0  0  0  0
  -35.0550   14.1380  -30.3460 N   0  0  0  0  0  0  0  0  0  0  0  0
  -37.2420   13.9770  -30.9220 O   0  0  0  0  0  0  0  0  0  0  0  0
  -33.7330   13.3130  -28.5210 C   0  0  0  0  0  2  0  0  0  0  0  0
  -32.8060   13.6700  -29.6640 C   0  0  0  0  0  3  0  0  0  0  0  0
  -32.3750   12.4960  -30.3350 O   0  0  0  0  0  0  0  0  0  0  0  0
  -33.1430   12.0300  -30.6490 H   0  0  0  0  0  0  0  0  0  0  0  0
  -35.9330   15.3680  -32.3690 C   0  0  0  0  0  3  0  0  0  0  0  0
  -36.6940   14.7690  -33.4780 N   0  0  0  0  0  0  0  0  0  0  0  0
  -36.1880   14.2350  -34.5980 C   0  0  0  0  0  0  0  0  0  0  0  0
  -34.9800   14.2650  -34.8510 O   0  0  0  0  0  0  0  0  0  0  0  0
  -37.6870   14.6430  -33.3300 H   0  0  0  0  0  0  0  0  0  0  0  0
  -37.1870   13.5950  -35.5250 C   0  0  1  0  0  0  0  0  0  0  0  0
  -38.4480   13.4430  -34.9720 F   0  0  0  0  0  0  0  0  0  0  0  0
  -37.1190   13.8880  -37.0060 C   0  0  0  0  0  2  0  0  0  0  0  0
  -36.7370   12.5180  -36.4900 C   0  0  0  0  0  2  0  0  0  0  0  0
  -35.7230   17.4620  -30.8670 C   0  0  0  0  0  1  0  0  0  0  0  0
  -35.9460   17.7170  -33.3270 C   0  0  0  0  0  1  0  0  0  0  0  0
  -37.9180   16.9940  -31.9640 C   0  0  0  0  0  1  0  0  0  0  0  0
  -36.3890   16.8540  -32.1260 C   0  0  1  0  0  0  0  0  0  0  0  0
  -38.5340   14.2650  -23.9110 O   0  0  0  0  0  0  0  0  0  0  0  0
  -38.3450   15.6950  -23.9530 C   0  0  0  0  0  2  0  0  0  0  0  0
  -40.3240   19.1690  -28.0830 N   0  0  0  0  0  0  0  0  0  0  0  0
  -39.9070   19.4090  -29.4790 C   0  0  0  0  0  2  0  0  0  0  0  0
  -41.1160   19.4950  -30.4750 C   0  0  0  0  0  2  0  0  0  0  0  0
  -42.2540   18.6950  -30.0100 N   0  0  0  0  0  0  0  0  0  0  0  0
  -42.7130   18.8850  -28.6340 C   0  0  0  0  0  2  0  0  0  0  0  0
  -41.6720   19.6430  -27.7820 C   0  0  0  0  0  2  0  0  0  0  0  0
  -37.9350   16.9950  -26.1550 C   0  0  0  0  0  3  0  0  0  0  0  0
  -38.4200   17.8530  -27.1760 C   0  0  0  0  0  3  0  0  0  0  0  0
  -40.1940   16.7130  -25.4110 C   0  0  0  0  0  3  0  0  0  0  0  0
  -38.8320   16.4300  -25.2190 C   0  0  0  0  0  0  0  0  0  0  0  0
  -39.7960   18.1500  -27.2380 C   0  0  0  0  0  0  0  0  0  0  0  0
  -40.6530   17.5430  -26.3780 N   0  0  0  0  0  0  0  0  0  0  0  0
  -43.1180   18.0800  -30.9450 C   0  0  0  0  0  0  0  0  0  0  0  0
  -44.4280   18.5480  -31.1840 C   0  0  0  0  0  3  0  0  0  0  0  0
  -45.2540   17.8600  -32.1160 C   0  0  0  0  0  0  0  0  0  0  0  0
  -44.7660   16.7610  -32.7580 N   0  0  0  0  0  0  0  0  0  0  0  0
  -43.5350   16.2930  -32.5330 N   0  0  0  0  0  0  0  0  0  0  0  0
  -42.7270   16.9230  -31.6570 C   0  0  0  0  0  0  0  0  0  0  0  0
  -41.4910   16.3410  -31.4370 N   0  0  0  0  0  0  0  0  0  0  0  0
  -41.0690   16.6650  -30.5770 H   0  0  0  0  0  0  0  0  0  0  0  0
  -41.4470   15.3420  -31.5720 H   0  0  0  0  0  0  0  0  0  0  0  0
  -46.6650   18.2670  -32.4400 C   0  0  0  0  0  0  0  0  0  0  0  0
  -47.5370   17.5430  -33.3190 C   0  0  0  0  0  0  0  0  0  0  0  0
  -48.8560   17.9760  -33.5620 C   0  0  0  0  0  3  0  0  0  0  0  0
  -49.3550   19.1340  -32.9480 C   0  0  0  0  0  3  0  0  0  0  0  0
  -48.5250   19.8690  -32.0920 C   0  0  0  0  0  3  0  0  0  0  0  0
  -47.2070   19.4400  -31.8490 C   0  0  0  0  0  3  0  0  0  0  0  0
  -47.1620   16.4020  -33.9700 O   0  0  0  0  0  0  0  0  0  0  0  0
  -46.2510   16.1860  -33.7700 H   0  0  0  0  0  0  0  0  0  0  0  0
  1  2  1  0
  2  3  2  0
  3  9  1  0
  4  6  2  0
  5  4  1  0
  5  1  2  0
  6  3  1  0
  7 12  1  0
  7 10  1  0
  8 10  2  0
  9 11  1  0
  9  7  2  0
 11  8  1  0
 13  5  1  0
 14 15  2  0
 14 16  1  0
 16 13  1  0
 17 16  1  0
 18 22  2  0
 18 21  1  0
 19 23  1  0
 19 14  1  0
 20 21  1  0
 20 24  1  0
 21 19  1  0
 24 25  1  0
 24 23  1  0
 26 25  1  0
 27 39  1  0
 27 18  1  0
 28 31  1  0
 28 27  1  0
 29 28  1  0
 30 29  2  0
 32 33  1  1
 32 29  1  0
 34 35  1  0
 34 32  1  0
 35 32  1  0
 39 37  1  6
 39 38  1  0
 39 36  1  0
 40  1  1  0
 41 40  1  0
 42 47  1  0
 42 52  1  0
 43 42  1  0
 44 45  1  0
 44 43  1  0
 45 46  1  0
 46 47  1  0
 48 51  1  0
 49 48  2  0
 50 51  2  0
 51 41  1  0
 52 49  1  0
 52 53  2  0
 53 50  1  0
 54 45  1  0
 55 54  1  0
 56 55  2  0
 57 58  2  0
 57 56  1  0
 58 59  1  0
 59 60  1  0
 59 54  2  0
 60 61  1  0
 62 60  1  0
 63 56  1  0
 63 68  1  0
 64 63  2  0
 65 64  1  0
 65 66  2  0
 66 67  1  0
 67 68  2  0
 69 70  1  0
 69 64  1  0
M  ISO  4  40 101  41 101  42 100  52 100
M  END
>  <TORSDO>  (72) 
F 15

>  <SCORE>  (72) 
-14.723

>  <name>  (72) 
71

>  <ligand_id>  (72) 
71

>  <original_smiles>  (72) 
[H]Oc1c([H])c([H])c([H])c([H])c1-c1nnc(N([H])[H])c(N2C([H])([H])C([H])([H])N(c3nc([H])c(C([H])([H])Oc4c([H])c(-c5sc([H])nc5C([H])([H])[H])c([H])c([H])c4C([H])([H])N([H])C(=O)C4([H])N(C(=O)C([H])(N([H])C(=O)C5(F)C([H])([H])C5([H])[H])C(C([H])([H])[H])(C([H])([H])[H])C([H])([H])[H])C([H])([H])C([H])(O[H])C4([H])[H])c([H])c3[H])C([H])([H])C2([H])[H])c1[H]

>  <smiles>  (72) 
[H]Oc1c([H])c([H])c([H])c([H])c1-c1nnc(N([H])[H])c(N2C([H])([H])C([H])([H])N(c3nc([H])c(C([H])([H])Oc4c([H])c(-c5sc([H])nc5C([H])([H])[H])c([H])c([H])c4C([H])([H])N([H])C(=O)C4([H])N(C(=O)C([H])(N([H])C(=O)C5(F)C([H])([H])C5([H])[H])C(C([H])([H])[H])(C([H])([H])[H])C([H])([H])[H])C([H])([H])C([H])(O[H])C4([H])[H])c([H])c3[H])C([H])([H])C2([H])[H])c1[H]

$$$$
72:0:0
     RDKit          3D

 79 87  0  0  1  0  0  0  0  0999 V2000
  -38.6010   14.1370  -23.8040 O   0  0  0  0  0  0  0  0  0  0  0  0
  -37.4950   16.3250  -23.8620 C   0  0  0  0  0  2  0  0  0  0  0  0
  -40.0230   16.0620  -23.5250 C   0  0  0  0  0  2  0  0  0  0  0  0
  -37.5930   17.7580  -23.3690 C   0  0  0  0  0  2  0  0  0  0  0  0
  -40.0800   17.5990  -23.3110 C   0  0  0  0  0  2  0  0  0  0  0  0
  -38.6310   15.4580  -23.2560 C   0  0  0  0  0  3  0  0  0  0  0  0
  -38.8730   18.2860  -23.7880 N   0  0  0  0  0  0  0  0  0  0  0  0
  -38.4470   21.4550  -25.7270 C   0  0  0  0  0  0  0  0  0  0  0  0
  -38.8700   19.1800  -24.8790 C   0  0  0  0  0  0  0  0  0  0  0  0
  -39.4840   19.7680  -27.1830 C   0  0  0  0  0  0  0  0  0  0  0  0
  -38.4040   20.5040  -24.6780 C   0  0  0  0  0  0  0  0  0  0  0  0
  -39.0470   21.1050  -26.9610 C   0  0  0  0  0  0  0  0  0  0  0  0
  -39.3190   18.8000  -26.1700 C   0  0  0  0  0  0  0  0  0  0  0  0
  -37.9250   22.8710  -25.4990 C   0  0  0  0  0  1  0  0  0  0  0  0
  -37.8160   20.9890  -23.1160 Cl  0  0  0  0  0  0  0  0  0  0  0  0
  -39.3330   22.3430  -28.1440 Cl  0  0  0  0  0  0  0  0  0  0  0  0
  -39.7150   17.1570  -26.5630 Cl  0  0  0  0  0  0  0  0  0  0  0  0
  -40.3080   19.3820  -28.2550 N   0  0  0  0  0  0  0  0  0  0  0  0
  -39.9120   19.4920  -29.6630 C   0  0  0  0  0  2  0  0  0  0  0  0
  -41.1400   19.5180  -30.6160 C   0  0  0  0  0  2  0  0  0  0  0  0
  -42.2120   18.6600  -30.1140 N   0  0  0  0  0  0  0  0  0  0  0  0
  -42.7030   18.8960  -28.7620 C   0  0  0  0  0  2  0  0  0  0  0  0
  -41.6960   19.6820  -27.9070 C   0  0  0  0  0  2  0  0  0  0  0  0
  -43.0810   18.0420  -31.0360 C   0  0  0  0  0  0  0  0  0  0  0  0
  -44.3990   18.4940  -31.2570 C   0  0  0  0  0  3  0  0  0  0  0  0
  -45.2230   17.7930  -32.1750 C   0  0  0  0  0  0  0  0  0  0  0  0
  -44.7240   16.7000  -32.8220 N   0  0  0  0  0  0  0  0  0  0  0  0
  -43.4840   16.2490  -32.6140 N   0  0  0  0  0  0  0  0  0  0  0  0
  -42.6740   16.8960  -31.7500 C   0  0  0  0  0  0  0  0  0  0  0  0
  -41.4210   16.3490  -31.5490 N   0  0  0  0  0  0  0  0  0  0  0  0
  -40.9840   16.7370  -30.7210 H   0  0  0  0  0  0  0  0  0  0  0  0
  -41.3600   15.3440  -31.6180 H   0  0  0  0  0  0  0  0  0  0  0  0
  -46.6430   18.1760  -32.4790 C   0  0  0  0  0  0  0  0  0  0  0  0
  -47.5140   17.4410  -33.3500 C   0  0  0  0  0  0  0  0  0  0  0  0
  -48.8410   17.8550  -33.5750 C   0  0  0  0  0  3  0  0  0  0  0  0
  -49.3540   19.0000  -32.9530 C   0  0  0  0  0  3  0  0  0  0  0  0
  -48.5250   19.7470  -32.1050 C   0  0  0  0  0  3  0  0  0  0  0  0
  -47.1980   19.3400  -31.8770 C   0  0  0  0  0  3  0  0  0  0  0  0
  -47.1290   16.3070  -34.0090 O   0  0  0  0  0  0  0  0  0  0  0  0
  -46.2130   16.1030  -33.8160 H   0  0  0  0  0  0  0  0  0  0  0  0
  -37.3860   13.5020  -23.7030 C   0  0  0  0  0  0  0  0  0  0  0  0
  -36.7030   13.4200  -22.4680 C   0  0  0  0  0  3  0  0  0  0  0  0
  -35.4200   12.8410  -22.3810 C   0  0  0  0  0  0  0  0  0  0  0  0
  -35.5040   12.4020  -24.7880 C   0  0  0  0  0  3  0  0  0  0  0  0
  -36.7970   12.9690  -24.8730 C   0  0  0  0  0  0  0  0  0  0  0  0
  -34.8230   12.3490  -23.5580 C   0  0  0  0  0  3  0  0  0  0  0  0
  -35.1960   12.2330  -19.8850 C   0  0  0  0  0  0  0  0  0  0  0  0
  -33.0500   12.6740  -19.3170 C   0  0  0  0  0  3  0  0  0  0  0  0
  -34.7340   12.7130  -21.0950 C   0  0  0  0  0  0  0  0  0  0  0  0
  -34.2250   12.2150  -18.8830 N   0  0  0  0  0  0  0  0  0  0  0  0
  -33.0520   13.1860  -20.9930 S   0  0  0  0  0  0  0  0  0  0  0  0
  -36.5620   11.7190  -19.5470 C   0  0  0  0  0  1  0  0  0  0  0  0
  -37.5620   12.9950  -26.1980 C   0  0  0  0  0  2  0  0  0  0  0  0
  -36.1810   13.7390  -28.1170 C   0  0  0  0  0  0  0  0  0  0  0  0
  -36.4400   14.9360  -27.9750 O   0  0  0  0  0  0  0  0  0  0  0  0
  -36.7230   12.7770  -27.3670 N   0  0  0  0  0  0  0  0  0  0  0  0
  -36.4810   11.8200  -27.5820 H   0  0  0  0  0  0  0  0  0  0  0  0
  -36.1050   14.4440  -31.1420 C   0  0  0  0  0  0  0  0  0  0  0  0
  -35.1390   13.2780  -29.1510 C   0  0  0  0  0  3  0  0  0  0  0  0
  -33.6470   14.4750  -30.6290 C   0  0  0  0  0  2  0  0  0  0  0  0
  -35.0480   14.1350  -30.3470 N   0  0  0  0  0  0  0  0  0  0  0  0
  -37.2340   13.9840  -30.9290 O   0  0  0  0  0  0  0  0  0  0  0  0
  -33.7400   13.3170  -28.5110 C   0  0  0  0  0  2  0  0  0  0  0  0
  -32.8040   13.6550  -29.6540 C   0  0  0  0  0  3  0  0  0  0  0  0
  -32.3800   12.4720  -30.3100 O   0  0  0  0  0  0  0  0  0  0  0  0
  -33.1500   12.0040  -30.6170 H   0  0  0  0  0  0  0  0  0  0  0  0
  -35.9090   15.3510  -32.3850 C   0  0  0  0  0  3  0  0  0  0  0  0
  -35.7110   17.4500  -30.8900 C   0  0  0  0  0  1  0  0  0  0  0  0
  -35.8790   17.6900  -33.3570 C   0  0  0  0  0  1  0  0  0  0  0  0
  -37.8870   16.9980  -32.0260 C   0  0  0  0  0  1  0  0  0  0  0  0
  -36.3560   16.8420  -32.1590 C   0  0  1  0  0  0  0  0  0  0  0  0
  -36.6700   14.7430  -33.4910 N   0  0  0  0  0  0  0  0  0  0  0  0
  -36.1640   14.2080  -34.6110 C   0  0  0  0  0  0  0  0  0  0  0  0
  -34.9580   14.2380  -34.8660 O   0  0  0  0  0  0  0  0  0  0  0  0
  -37.6600   14.6100  -33.3360 H   0  0  0  0  0  0  0  0  0  0  0  0
  -37.1620   13.5620  -35.5370 C   0  0  1  0  0  0  0  0  0  0  0  0
  -38.4250   13.4090  -34.9840 F   0  0  0  0  0  0  0  0  0  0  0  0
  -37.0930   13.8460  -37.0200 C   0  0  0  0  0  2  0  0  0  0  0  0
  -36.7070   12.4810  -36.4950 C   0  0  0  0  0  2  0  0  0  0  0  0
  1 41  1  0
  2  4  1  0
  2  6  1  0
  3  5  1  0
  3  6  1  0
  6  1  1  0
  7  4  1  0
  7  5  1  0
  8 14  1  0
  8 11  1  0
  9 11  2  0
  9  7  1  0
 10 12  1  0
 10 13  2  0
 11 15  1  0
 12  8  2  0
 13  9  1  0
 16 12  1  0
 17 13  1  0
 18 23  1  0
 18 10  1  0
 19 18  1  0
 20 21  1  0
 20 19  1  0
 21 22  1  0
 22 23  1  0
 24 21  1  0
 25 24  1  0
 26 25  2  0
 27 28  2  0
 27 26  1  0
 28 29  1  0
 29 30  1  0
 29 24  2  0
 30 31  1  0
 32 30  1  0
 33 26  1  0
 33 38  1  0
 34 33  2  0
 35 34  1  0
 35 36  2  0
 36 37  1  0
 37 38  2  0
 39 40  1  0
 39 34  1  0
 41 42  1  0
 42 43  2  0
 43 49  1  0
 44 46  2  0
 45 44  1  0
 45 41  2  0
 46 43  1  0
 47 52  1  0
 47 50  1  0
 48 50  2  0
 49 51  1  0
 49 47  2  0
 51 48  1  0
 53 45  1  0
 54 55  2  0
 54 56  1  0
 56 53  1  0
 57 56  1  0
 58 62  2  0
 58 61  1  0
 59 63  1  0
 59 54  1  0
 60 61  1  0
 60 64  1  0
 61 59  1  0
 64 65  1  0
 64 63  1  0
 66 65  1  0
 67 71  1  0
 67 58  1  0
 71 69  1  6
 71 70  1  0
 71 68  1  0
 72 75  1  0
 72 67  1  0
 73 72  1  0
 74 73  2  0
 76 77  1  1
 76 73  1  0
 78 79  1  0
 78 76  1  0
 79 76  1  0
M  ISO  4   1 101   6 101  10 100  18 100
M  END
>  <TORSDO>  (73) 
F 16

>  <SCORE>  (73) 
-14.691

>  <name>  (73) 
72

>  <ligand_id>  (73) 
72

>  <original_smiles>  (73) 
[H]Oc1c([H])c([H])c([H])c([H])c1-c1nnc(N([H])[H])c(N2C([H])([H])C([H])([H])N(c3c(Cl)c(N4C([H])([H])C([H])([H])C([H])(Oc5c([H])c(-c6sc([H])nc6C([H])([H])[H])c([H])c([H])c5C([H])([H])N([H])C(=O)C5([H])N(C(=O)C([H])(N([H])C(=O)C6(F)C([H])([H])C6([H])[H])C(C([H])([H])[H])(C([H])([H])[H])C([H])([H])[H])C([H])([H])C([H])(O[H])C5([H])[H])C([H])([H])C4([H])[H])c(Cl)c(C([H])([H])[H])c3Cl)C([H])([H])C2([H])[H])c1[H]

>  <smiles>  (73) 
[H]Oc1c([H])c([H])c([H])c([H])c1-c1nnc(N([H])[H])c(N2C([H])([H])C([H])([H])N(c3c(Cl)c(N4C([H])([H])C([H])([H])C([H])(Oc5c([H])c(-c6sc([H])nc6C([H])([H])[H])c([H])c([H])c5C([H])([H])N([H])C(=O)C5([H])N(C(=O)C([H])(N([H])C(=O)C6(F)C([H])([H])C6([H])[H])C(C([H])([H])[H])(C([H])([H])[H])C([H])([H])[H])C([H])([H])C([H])(O[H])C5([H])[H])C([H])([H])C4([H])[H])c(Cl)c(C([H])([H])[H])c3Cl)C([H])([H])C2([H])[H])c1[H]

$$$$
73:0:0
     RDKit          3D

 75 83  0  0  1  0  0  0  0  0999 V2000
  -37.4040   13.3470  -23.6160 C   0  0  0  0  0  0  0  0  0  0  0  0
  -36.6780   13.3560  -22.4230 C   0  0  0  0  0  3  0  0  0  0  0  0
  -35.3800   12.8490  -22.3700 C   0  0  0  0  0  0  0  0  0  0  0  0
  -35.4950   12.3930  -24.7700 C   0  0  0  0  0  3  0  0  0  0  0  0
  -36.8220   12.8680  -24.8290 C   0  0  0  0  0  0  0  0  0  0  0  0
  -34.7860   12.3790  -23.5570 C   0  0  0  0  0  3  0  0  0  0  0  0
  -35.1710   12.3200  -19.8670 C   0  0  0  0  0  0  0  0  0  0  0  0
  -33.0220   12.7770  -19.3180 C   0  0  0  0  0  3  0  0  0  0  0  0
  -34.6970   12.7580  -21.0890 C   0  0  0  0  0  0  0  0  0  0  0  0
  -34.1980   12.3340  -18.8680 N   0  0  0  0  0  0  0  0  0  0  0  0
  -33.0220   13.2360  -21.0080 S   0  0  0  0  0  0  0  0  0  0  0  0
  -36.5390   11.8250  -19.5100 C   0  0  0  0  0  1  0  0  0  0  0  0
  -37.5850   12.7350  -26.1540 C   0  0  0  0  0  2  0  0  0  0  0  0
  -36.2140   13.6460  -28.0570 C   0  0  0  0  0  0  0  0  0  0  0  0
  -36.4220   14.8380  -27.8300 O   0  0  0  0  0  0  0  0  0  0  0  0
  -36.7500   12.6430  -27.3520 N   0  0  0  0  0  0  0  0  0  0  0  0
  -36.5100   11.7060  -27.6420 H   0  0  0  0  0  0  0  0  0  0  0  0
  -36.1910   14.4320  -31.1010 C   0  0  0  0  0  0  0  0  0  0  0  0
  -35.1980   13.2350  -29.1330 C   0  0  0  0  0  3  0  0  0  0  0  0
  -33.7370   14.4860  -30.5930 C   0  0  0  0  0  2  0  0  0  0  0  0
  -35.1310   14.1260  -30.3080 N   0  0  0  0  0  0  0  0  0  0  0  0
  -37.3130   13.9600  -30.8870 O   0  0  0  0  0  0  0  0  0  0  0  0
  -33.7970   13.2780  -28.5040 C   0  0  0  0  0  2  0  0  0  0  0  0
  -32.8780   13.6540  -29.6450 C   0  0  0  0  0  3  0  0  0  0  0  0
  -32.4460   12.4900  -30.3290 O   0  0  0  0  0  0  0  0  0  0  0  0
  -33.2130   12.0230  -30.6470 H   0  0  0  0  0  0  0  0  0  0  0  0
  -36.0050   15.3560  -32.3390 C   0  0  0  0  0  3  0  0  0  0  0  0
  -36.7480   14.7470  -33.4560 N   0  0  0  0  0  0  0  0  0  0  0  0
  -36.2260   14.2160  -34.5690 C   0  0  0  0  0  0  0  0  0  0  0  0
  -35.0160   14.2480  -34.8040 O   0  0  0  0  0  0  0  0  0  0  0  0
  -37.7420   14.6170  -33.3210 H   0  0  0  0  0  0  0  0  0  0  0  0
  -37.2120   13.5770  -35.5100 C   0  0  1  0  0  0  0  0  0  0  0  0
  -38.4870   13.4440  -34.9820 F   0  0  0  0  0  0  0  0  0  0  0  0
  -37.1110   13.8530  -36.9920 C   0  0  0  0  0  2  0  0  0  0  0  0
  -36.7520   12.4870  -36.4530 C   0  0  0  0  0  2  0  0  0  0  0  0
  -35.8750   17.4530  -30.8330 C   0  0  0  0  0  1  0  0  0  0  0  0
  -36.0150   17.7130  -33.2990 C   0  0  0  0  0  1  0  0  0  0  0  0
  -38.0170   16.9400  -32.0540 C   0  0  0  0  0  1  0  0  0  0  0  0
  -36.4830   16.8370  -32.1180 C   0  0  1  0  0  0  0  0  0  0  0  0
  -38.6690   13.8210  -23.4770 O   0  0  0  0  0  0  0  0  0  0  0  0
  -37.8740   16.0980  -23.7080 C   0  0  0  0  0  3  0  0  0  0  0  0
  -37.7010   16.9250  -24.8160 C   0  0  0  0  0  3  0  0  0  0  0  0
  -38.8230   15.0820  -23.8920 C   0  0  0  0  0  0  0  0  0  0  0  0
  -39.2990   15.7280  -25.9240 C   0  0  0  0  0  0  0  0  0  0  0  0
  -39.4800   17.1140  -28.5960 C   0  0  0  0  0  2  0  0  0  0  0  0
  -41.4380   17.2450  -26.8150 C   0  0  0  0  0  2  0  0  0  0  0  0
  -39.5770   15.6160  -28.3780 C   0  0  0  0  0  2  0  0  0  0  0  0
  -41.4320   15.7290  -26.8530 C   0  0  0  0  0  2  0  0  0  0  0  0
  -40.7800   17.7610  -28.1290 C   0  0  0  0  0  3  0  0  0  0  0  0
  -38.3690   16.6760  -25.9530 N   0  0  0  0  0  0  0  0  0  0  0  0
  -39.6660   15.0430  -24.8880 N   0  0  0  0  0  0  0  0  0  0  0  0
  -40.0420   15.3530  -27.0280 N   0  0  0  0  0  0  0  0  0  0  0  0
  -40.6490   19.2190  -28.1520 N   0  0  0  0  0  0  0  0  0  0  0  0
  -40.2530   19.7260  -29.4820 C   0  0  0  0  0  2  0  0  0  0  0  0
  -41.3480   19.5830  -30.5820 C   0  0  0  0  0  2  0  0  0  0  0  0
  -42.5250   18.8490  -30.1240 N   0  0  0  0  0  0  0  0  0  0  0  0
  -43.0590   19.1610  -28.7970 C   0  0  0  0  0  2  0  0  0  0  0  0
  -41.9700   19.7810  -27.8660 C   0  0  0  0  0  2  0  0  0  0  0  0
  -43.2920   18.0820  -31.0110 C   0  0  0  0  0  0  0  0  0  0  0  0
  -44.6150   18.4650  -31.2600 C   0  0  0  0  0  3  0  0  0  0  0  0
  -45.3810   17.7380  -32.1970 C   0  0  0  0  0  0  0  0  0  0  0  0
  -44.8270   16.6690  -32.8350 N   0  0  0  0  0  0  0  0  0  0  0  0
  -43.5780   16.2610  -32.5830 N   0  0  0  0  0  0  0  0  0  0  0  0
  -42.8190   16.9320  -31.6920 C   0  0  0  0  0  0  0  0  0  0  0  0
  -41.5550   16.4150  -31.4610 N   0  0  0  0  0  0  0  0  0  0  0  0
  -40.9270   17.0580  -31.0040 H   0  0  0  0  0  0  0  0  0  0  0  0
  -41.1500   15.8700  -32.2080 H   0  0  0  0  0  0  0  0  0  0  0  0
  -46.7970   18.1010  -32.5310 C   0  0  0  0  0  0  0  0  0  0  0  0
  -47.6280   17.3520  -33.4220 C   0  0  0  0  0  0  0  0  0  0  0  0
  -48.9580   17.7410  -33.6770 C   0  0  0  0  0  3  0  0  0  0  0  0
  -49.5050   18.8770  -33.0630 C   0  0  0  0  0  3  0  0  0  0  0  0
  -48.7130   19.6360  -32.1920 C   0  0  0  0  0  3  0  0  0  0  0  0
  -47.3860   19.2520  -31.9370 C   0  0  0  0  0  3  0  0  0  0  0  0
  -47.2000   16.2290  -34.0730 O   0  0  0  0  0  0  0  0  0  0  0  0
  -46.2850   16.0430  -33.8580 H   0  0  0  0  0  0  0  0  0  0  0  0
  1 40  1  0
  1  2  1  0
  2  3  2  0
  3  9  1  0
  4  6  2  0
  5  4  1  0
  5  1  2  0
  6  3  1  0
  7 12  1  0
  7 10  1  0
  8 10  2  0
  9 11  1  0
  9  7  2  0
 11  8  1  0
 13  5  1  0
 14 15  2  0
 14 16  1  0
 16 13  1  0
 17 16  1  0
 18 22  2  0
 18 21  1  0
 19 23  1  0
 19 14  1  0
 20 21  1  0
 20 24  1  0
 21 19  1  0
 24 25  1  0
 24 23  1  0
 26 25  1  0
 27 39  1  0
 27 18  1  0
 28 31  1  0
 28 27  1  0
 29 28  1  0
 30 29  2  0
 32 33  1  1
 32 29  1  0
 34 35  1  0
 34 32  1  0
 35 32  1  0
 39 37  1  6
 39 38  1  0
 39 36  1  0
 42 41  2  0
 43 41  1  0
 43 40  1  0
 44 51  1  0
 45 47  1  0
 47 52  1  0
 48 46  1  0
 49 45  1  0
 49 46  1  0
 50 44  2  0
 50 42  1  0
 51 43  2  0
 52 48  1  0
 52 44  1  0
 53 54  1  0
 53 49  1  0
 53 58  1  0
 55 56  1  0
 55 54  1  0
 56 57  1  0
 57 58  1  0
 59 56  1  0
 60 59  1  0
 61 60  2  0
 62 63  2  0
 62 61  1  0
 63 64  1  0
 64 65  1  0
 64 59  2  0
 65 66  1  0
 67 65  1  0
 68 61  1  0
 68 73  1  0
 69 68  2  0
 70 69  1  0
 70 71  2  0
 71 72  1  0
 72 73  2  0
 74 75  1  0
 74 69  1  0
M  ISO  4  40 101  43 101  49 100  53 100
M  END
>  <TORSDO>  (74) 
F 15

>  <SCORE>  (74) 
-15.046

>  <name>  (74) 
73

>  <ligand_id>  (74) 
73

>  <original_smiles>  (74) 
[H]Oc1c([H])c([H])c([H])c([H])c1-c1nnc(N([H])[H])c(N2C([H])([H])C([H])([H])N(C3([H])C([H])([H])C([H])([H])N(c4nc([H])c([H])c(Oc5c([H])c(-c6sc([H])nc6C([H])([H])[H])c([H])c([H])c5C([H])([H])N([H])C(=O)C5([H])N(C(=O)C([H])(N([H])C(=O)C6(F)C([H])([H])C6([H])[H])C(C([H])([H])[H])(C([H])([H])[H])C([H])([H])[H])C([H])([H])C([H])(O[H])C5([H])[H])n4)C([H])([H])C3([H])[H])C([H])([H])C2([H])[H])c1[H]

>  <smiles>  (74) 
[H]Oc1c([H])c([H])c([H])c([H])c1-c1nnc(N([H])[H])c(N2C([H])([H])C([H])([H])N(C3([H])C([H])([H])C([H])([H])N(c4nc([H])c([H])c(Oc5c([H])c(-c6sc([H])nc6C([H])([H])[H])c([H])c([H])c5C([H])([H])N([H])C(=O)C5([H])N(C(=O)C([H])(N([H])C(=O)C6(F)C([H])([H])C6([H])[H])C(C([H])([H])[H])(C([H])([H])[H])C([H])([H])[H])C([H])([H])C([H])(O[H])C5([H])[H])n4)C([H])([H])C3([H])[H])C([H])([H])C2([H])[H])c1[H]

$$$$
74:0:0
     RDKit          3D

 71 78  0  0  1  0  0  0  0  0999 V2000
  -37.3990   13.6170  -23.7760 C   0  0  0  0  0  0  0  0  0  0  0  0
  -36.7240   13.5530  -22.5250 C   0  0  0  0  0  3  0  0  0  0  0  0
  -35.4660   12.9100  -22.3820 C   0  0  0  0  0  0  0  0  0  0  0  0
  -35.5500   12.3450  -24.7570 C   0  0  0  0  0  3  0  0  0  0  0  0
  -36.8180   12.9580  -24.8910 C   0  0  0  0  0  0  0  0  0  0  0  0
  -34.8790   12.3330  -23.5240 C   0  0  0  0  0  3  0  0  0  0  0  0
  -35.2330   12.3480  -19.8660 C   0  0  0  0  0  0  0  0  0  0  0  0
  -33.0720   12.7560  -19.3170 C   0  0  0  0  0  3  0  0  0  0  0  0
  -34.7730   12.7970  -21.0890 C   0  0  0  0  0  0  0  0  0  0  0  0
  -34.2540   12.3340  -18.8680 N   0  0  0  0  0  0  0  0  0  0  0  0
  -33.0750   13.2220  -21.0070 S   0  0  0  0  0  0  0  0  0  0  0  0
  -36.6040   11.8670  -19.5090 C   0  0  0  0  0  1  0  0  0  0  0  0
  -37.5740   12.8400  -26.2170 C   0  0  0  0  0  2  0  0  0  0  0  0
  -36.1910   13.6550  -28.1000 C   0  0  0  0  0  0  0  0  0  0  0  0
  -36.4810   14.8440  -27.9420 O   0  0  0  0  0  0  0  0  0  0  0  0
  -36.7090   12.6650  -27.3700 N   0  0  0  0  0  0  0  0  0  0  0  0
  -36.4310   11.7190  -27.5920 H   0  0  0  0  0  0  0  0  0  0  0  0
  -36.1080   14.4090  -31.1120 C   0  0  0  0  0  0  0  0  0  0  0  0
  -35.1350   13.2300  -29.1310 C   0  0  0  0  0  3  0  0  0  0  0  0
  -33.6550   14.4650  -30.5810 C   0  0  0  0  0  2  0  0  0  0  0  0
  -35.0530   14.1040  -30.3140 N   0  0  0  0  0  0  0  0  0  0  0  0
  -37.2330   13.9340  -30.9120 O   0  0  0  0  0  0  0  0  0  0  0  0
  -33.7440   13.2780  -28.4800 C   0  0  0  0  0  2  0  0  0  0  0  0
  -32.8070   13.6410  -29.6130 C   0  0  0  0  0  3  0  0  0  0  0  0
  -32.3680   12.4700  -30.2840 O   0  0  0  0  0  0  0  0  0  0  0  0
  -33.1320   12.0050  -30.6120 H   0  0  0  0  0  0  0  0  0  0  0  0
  -35.9170   15.3360  -32.3410 C   0  0  0  0  0  3  0  0  0  0  0  0
  -36.6760   14.7470  -33.4560 N   0  0  0  0  0  0  0  0  0  0  0  0
  -36.1690   14.2160  -34.5770 C   0  0  0  0  0  0  0  0  0  0  0  0
  -34.9610   14.2400  -34.8270 O   0  0  0  0  0  0  0  0  0  0  0  0
  -37.6700   14.6270  -33.3130 H   0  0  0  0  0  0  0  0  0  0  0  0
  -37.1690   13.5870  -35.5110 C   0  0  1  0  0  0  0  0  0  0  0  0
  -38.4350   13.4460  -34.9660 F   0  0  0  0  0  0  0  0  0  0  0  0
  -37.0910   13.8840  -36.9910 C   0  0  0  0  0  2  0  0  0  0  0  0
  -36.7230   12.5100  -36.4770 C   0  0  0  0  0  2  0  0  0  0  0  0
  -35.6850   17.4280  -30.8410 C   0  0  0  0  0  1  0  0  0  0  0  0
  -35.9350   17.6850  -33.2970 C   0  0  0  0  0  1  0  0  0  0  0  0
  -37.8930   16.9640  -31.9130 C   0  0  0  0  0  1  0  0  0  0  0  0
  -36.3660   16.8230  -32.0920 C   0  0  1  0  0  0  0  0  0  0  0  0
  -38.6380   14.2460  -23.8750 O   0  0  0  0  0  0  0  0  0  0  0  0
  -40.1710   16.4470  -26.4790 C   0  0  0  0  0  3  0  0  0  0  0  0
  -40.0370   15.4300  -25.4960 C   0  0  0  0  0  3  0  0  0  0  0  0
  -38.0260   17.2480  -25.7680 C   0  0  0  0  0  3  0  0  0  0  0  0
  -39.1300   17.3870  -26.6470 C   0  0  0  0  0  0  0  0  0  0  0  0
  -38.8590   15.3420  -24.7190 C   0  0  0  0  0  0  0  0  0  0  0  0
  -37.8850   16.2700  -24.8330 N   0  0  0  0  0  0  0  0  0  0  0  0
  -40.0830   18.9840  -28.4270 N   0  0  0  0  0  0  0  0  0  0  0  0
  -39.9080   19.5490  -29.7880 C   0  0  0  0  0  2  0  0  0  0  0  0
  -41.1840   19.5080  -30.6750 C   0  0  0  0  0  2  0  0  0  0  0  0
  -42.1950   18.6080  -30.1280 N   0  0  0  0  0  0  0  0  0  0  0  0
  -42.5720   18.8060  -28.7290 C   0  0  0  0  0  2  0  0  0  0  0  0
  -41.3950   19.3390  -27.8620 C   0  0  0  0  0  2  0  0  0  0  0  0
  -39.0250   18.3400  -27.8360 C   0  0  0  0  0  0  0  0  0  0  0  0
  -37.8900   18.4850  -28.2990 O   0  0  0  0  0  0  0  0  0  0  0  0
  -43.1210   18.0260  -31.0280 C   0  0  0  0  0  0  0  0  0  0  0  0
  -44.4260   18.5280  -31.2310 C   0  0  0  0  0  3  0  0  0  0  0  0
  -45.2960   17.8560  -32.1360 C   0  0  0  0  0  0  0  0  0  0  0  0
  -44.8550   16.7420  -32.7890 N   0  0  0  0  0  0  0  0  0  0  0  0
  -43.6290   16.2470  -32.6010 N   0  0  0  0  0  0  0  0  0  0  0  0
  -42.7800   16.8620  -31.7530 C   0  0  0  0  0  0  0  0  0  0  0  0
  -41.5470   16.2610  -31.5770 N   0  0  0  0  0  0  0  0  0  0  0  0
  -41.0790   16.6060  -30.7480 H   0  0  0  0  0  0  0  0  0  0  0  0
  -41.5280   15.2570  -31.6810 H   0  0  0  0  0  0  0  0  0  0  0  0
  -46.7090   18.2860  -32.4230 C   0  0  0  0  0  0  0  0  0  0  0  0
  -47.6160   17.5870  -33.2890 C   0  0  0  0  0  0  0  0  0  0  0  0
  -48.9340   18.0430  -33.4900 C   0  0  0  0  0  3  0  0  0  0  0  0
  -49.4000   19.1990  -32.8480 C   0  0  0  0  0  3  0  0  0  0  0  0
  -48.5370   19.9090  -32.0050 C   0  0  0  0  0  3  0  0  0  0  0  0
  -47.2190   19.4580  -31.8010 C   0  0  0  0  0  3  0  0  0  0  0  0
  -47.2760   16.4500  -33.9670 O   0  0  0  0  0  0  0  0  0  0  0  0
  -46.3620   16.2190  -33.7930 H   0  0  0  0  0  0  0  0  0  0  0  0
  1  2  1  0
  2  3  2  0
  3  9  1  0
  4  6  2  0
  5  4  1  0
  5  1  2  0
  6  3  1  0
  7 12  1  0
  7 10  1  0
  8 10  2  0
  9 11  1  0
  9  7  2  0
 11  8  1  0
 13  5  1  0
 14 15  2  0
 14 16  1  0
 16 13  1  0
 17 16  1  0
 18 22  2  0
 18 21  1  0
 19 23  1  0
 19 14  1  0
 20 21  1  0
 20 24  1  0
 21 19  1  0
 24 25  1  0
 24 23  1  0
 26 25  1  0
 27 39  1  0
 27 18  1  0
 28 31  1  0
 28 27  1  0
 29 28  1  0
 30 29  2  0
 32 33  1  1
 32 29  1  0
 34 35  1  0
 34 32  1  0
 35 32  1  0
 39 37  1  6
 39 38  1  0
 39 36  1  0
 40  1  1  0
 41 42  2  0
 42 45  1  0
 43 46  1  0
 44 41  1  0
 44 43  2  0
 45 40  1  0
 46 45  2  0
 47 52  1  0
 47 53  1  0
 48 47  1  0
 49 50  1  0
 49 48  1  0
 50 51  1  0
 51 52  1  0
 53 44  1  0
 54 53  2  0
 55 50  1  0
 56 55  1  0
 57 56  2  0
 58 59  2  0
 58 57  1  0
 59 60  1  0
 60 61  1  0
 60 55  2  0
 61 62  1  0
 63 61  1  0
 64 57  1  0
 64 69  1  0
 65 64  2  0
 66 65  1  0
 66 67  2  0
 67 68  1  0
 68 69  2  0
 70 71  1  0
 70 65  1  0
M  ISO  4  40 101  45 101  47 100  53 100
M  END
>  <TORSDO>  (75) 
F 15

>  <SCORE>  (75) 
-14.804

>  <name>  (75) 
74

>  <ligand_id>  (75) 
74

>  <original_smiles>  (75) 
[H]Oc1c([H])c([H])c([H])c([H])c1-c1nnc(N([H])[H])c(N2C([H])([H])C([H])([H])N(C(=O)c3c([H])nc(Oc4c([H])c(-c5sc([H])nc5C([H])([H])[H])c([H])c([H])c4C([H])([H])N([H])C(=O)C4([H])N(C(=O)C([H])(N([H])C(=O)C5(F)C([H])([H])C5([H])[H])C(C([H])([H])[H])(C([H])([H])[H])C([H])([H])[H])C([H])([H])C([H])(O[H])C4([H])[H])c([H])c3[H])C([H])([H])C2([H])[H])c1[H]

>  <smiles>  (75) 
[H]Oc1c([H])c([H])c([H])c([H])c1-c1nnc(N([H])[H])c(N2C([H])([H])C([H])([H])N(C(=O)c3c([H])nc(Oc4c([H])c(-c5sc([H])nc5C([H])([H])[H])c([H])c([H])c4C([H])([H])N([H])C(=O)C4([H])N(C(=O)C([H])(N([H])C(=O)C5(F)C([H])([H])C5([H])[H])C(C([H])([H])[H])(C([H])([H])[H])C([H])([H])[H])C([H])([H])C([H])(O[H])C4([H])[H])c([H])c3[H])C([H])([H])C2([H])[H])c1[H]

$$$$
75:0:0
     RDKit          3D

 85 93  0  0  1  0  0  0  0  0999 V2000
  -41.9030   13.7760  -23.6350 C   0  0  0  0  0  2  0  0  0  0  0  0
  -39.6860   14.5090  -21.4150 C   0  0  0  0  0  2  0  0  0  0  0  0
  -42.1060   15.1800  -23.0210 C   0  0  0  0  0  2  0  0  0  0  0  0
  -39.9280   15.9360  -21.9060 C   0  0  0  0  0  2  0  0  0  0  0  0
  -40.8700   12.8410  -22.9500 C   0  0  0  0  0  3  0  0  0  0  0  0
  -39.4980   13.4480  -22.5250 C   0  0  0  0  0  3  0  0  0  0  0  0
  -40.9040   16.0140  -22.9860 N   0  0  0  0  0  0  0  0  0  0  0  0
  -39.6540   16.5540  -26.4510 C   0  0  0  0  0  3  0  0  0  0  0  0
  -40.1150   15.9270  -25.2910 C   0  0  0  0  0  3  0  0  0  0  0  0
  -39.8250   18.7150  -25.3270 C   0  0  0  0  0  3  0  0  0  0  0  0
  -39.5450   17.9490  -26.4780 C   0  0  0  0  0  0  0  0  0  0  0  0
  -40.2920   18.0800  -24.1560 C   0  0  0  0  0  0  0  0  0  0  0  0
  -40.4600   16.6720  -24.1440 C   0  0  0  0  0  0  0  0  0  0  0  0
  -40.6270   18.9290  -22.9420 C   0  0  0  0  0  1  0  0  0  0  0  0
  -40.1660   19.2350  -28.4420 N   0  0  0  0  0  0  0  0  0  0  0  0
  -39.9480   19.7010  -29.8310 C   0  0  0  0  0  2  0  0  0  0  0  0
  -41.1990   19.5210  -30.7310 C   0  0  0  0  0  2  0  0  0  0  0  0
  -42.1940   18.6120  -30.1560 N   0  0  0  0  0  0  0  0  0  0  0  0
  -42.6400   18.8840  -28.7900 C   0  0  0  0  0  2  0  0  0  0  0  0
  -41.5320   19.5140  -27.9130 C   0  0  0  0  0  2  0  0  0  0  0  0
  -39.2260   18.5610  -27.7500 C   0  0  0  0  0  3  0  0  0  0  0  0
  -38.0050   18.3680  -28.2440 N   0  0  0  0  0  0  0  0  0  0  0  0
  -37.3520   17.8130  -27.7090 H   0  0  0  0  0  0  0  0  0  0  0  0
  -37.6850   18.8170  -29.0820 H   0  0  0  0  0  0  0  0  0  0  0  0
  -43.1010   18.0160  -31.0570 C   0  0  0  0  0  0  0  0  0  0  0  0
  -44.4180   18.4870  -31.2590 C   0  0  0  0  0  3  0  0  0  0  0  0
  -45.2620   17.8080  -32.1800 C   0  0  0  0  0  0  0  0  0  0  0  0
  -44.7840   16.7210  -32.8500 N   0  0  0  0  0  0  0  0  0  0  0  0
  -43.5460   16.2550  -32.6640 N   0  0  0  0  0  0  0  0  0  0  0  0
  -42.7230   16.8750  -31.7980 C   0  0  0  0  0  0  0  0  0  0  0  0
  -41.4720   16.3090  -31.6220 N   0  0  0  0  0  0  0  0  0  0  0  0
  -41.0280   16.6330  -30.7720 H   0  0  0  0  0  0  0  0  0  0  0  0
  -41.4140   15.3130  -31.7720 H   0  0  0  0  0  0  0  0  0  0  0  0
  -46.6830   18.2080  -32.4690 C   0  0  0  0  0  0  0  0  0  0  0  0
  -47.5650   17.4960  -33.3480 C   0  0  0  0  0  0  0  0  0  0  0  0
  -48.8930   17.9190  -33.5530 C   0  0  0  0  0  3  0  0  0  0  0  0
  -49.3930   19.0550  -32.9010 C   0  0  0  0  0  3  0  0  0  0  0  0
  -48.5540   19.7770  -32.0420 C   0  0  0  0  0  3  0  0  0  0  0  0
  -47.2270   19.3580  -31.8360 C   0  0  0  0  0  3  0  0  0  0  0  0
  -47.1910   16.3770  -34.0390 O   0  0  0  0  0  0  0  0  0  0  0  0
  -46.2740   16.1650  -33.8630 H   0  0  0  0  0  0  0  0  0  0  0  0
  -40.6840   11.5980  -23.7330 N   0  0  0  0  0  4  0  0  0  0  0  0
  -40.2350   11.7780  -24.6140 H   0  0  0  0  0  0  0  0  0  0  0  0
  -41.5700   11.1580  -23.9200 H   0  0  0  0  0  0  0  0  0  0  0  0
  -40.1240   10.9330  -23.2270 H   0  0  0  0  0  0  0  0  0  0  0  0
  -38.6860   13.8990  -23.6470 O   0  0  0  0  0  0  0  0  0  0  0  0
  -37.3730   13.4700  -23.6470 C   0  0  0  0  0  0  0  0  0  0  0  0
  -36.6250   13.4220  -22.4470 C   0  0  0  0  0  3  0  0  0  0  0  0
  -35.3600   12.8160  -22.3830 C   0  0  0  0  0  0  0  0  0  0  0  0
  -35.4890   12.4170  -24.7890 C   0  0  0  0  0  3  0  0  0  0  0  0
  -36.7810   12.9910  -24.8440 C   0  0  0  0  0  0  0  0  0  0  0  0
  -34.7920   12.3190  -23.5710 C   0  0  0  0  0  3  0  0  0  0  0  0
  -35.1580   12.1670  -19.8970 C   0  0  0  0  0  0  0  0  0  0  0  0
  -33.0060   12.5690  -19.3170 C   0  0  0  0  0  3  0  0  0  0  0  0
  -34.6800   12.6550  -21.0980 C   0  0  0  0  0  0  0  0  0  0  0  0
  -34.1890   12.1230  -18.8920 N   0  0  0  0  0  0  0  0  0  0  0  0
  -32.9940   13.0980  -20.9870 S   0  0  0  0  0  0  0  0  0  0  0  0
  -36.5350   11.6750  -19.5660 C   0  0  0  0  0  1  0  0  0  0  0  0
  -37.5530   13.0340  -26.1620 C   0  0  0  0  0  2  0  0  0  0  0  0
  -36.1840   13.7540  -28.1010 C   0  0  0  0  0  0  0  0  0  0  0  0
  -36.4410   14.9530  -27.9590 O   0  0  0  0  0  0  0  0  0  0  0  0
  -36.7260   12.7980  -27.3420 N   0  0  0  0  0  0  0  0  0  0  0  0
  -36.4830   11.8380  -27.5430 H   0  0  0  0  0  0  0  0  0  0  0  0
  -36.1300   14.4470  -31.1310 C   0  0  0  0  0  0  0  0  0  0  0  0
  -35.1480   13.2900  -29.1400 C   0  0  0  0  0  3  0  0  0  0  0  0
  -33.6710   14.4900  -30.6310 C   0  0  0  0  0  2  0  0  0  0  0  0
  -35.0670   14.1440  -30.3400 N   0  0  0  0  0  0  0  0  0  0  0  0
  -37.2550   13.9850  -30.9120 O   0  0  0  0  0  0  0  0  0  0  0  0
  -33.7440   13.3310  -28.5120 C   0  0  0  0  0  2  0  0  0  0  0  0
  -32.8180   13.6750  -29.6620 C   0  0  0  0  0  3  0  0  0  0  0  0
  -32.3880   12.4960  -30.3250 O   0  0  0  0  0  0  0  0  0  0  0  0
  -33.1560   12.0260  -30.6330 H   0  0  0  0  0  0  0  0  0  0  0  0
  -35.9440   15.3580  -32.3750 C   0  0  0  0  0  3  0  0  0  0  0  0
  -35.7410   17.4610  -30.8870 C   0  0  0  0  0  1  0  0  0  0  0  0
  -35.9450   17.7010  -33.3480 C   0  0  0  0  0  1  0  0  0  0  0  0
  -37.9310   16.9890  -31.9970 C   0  0  0  0  0  1  0  0  0  0  0  0
  -36.4000   16.8450  -32.1450 C   0  0  1  0  0  0  0  0  0  0  0  0
  -36.7060   14.7490  -33.4790 N   0  0  0  0  0  0  0  0  0  0  0  0
  -36.2020   14.2170  -34.6020 C   0  0  0  0  0  0  0  0  0  0  0  0
  -34.9970   14.2580  -34.8620 O   0  0  0  0  0  0  0  0  0  0  0  0
  -37.6970   14.6150  -33.3250 H   0  0  0  0  0  0  0  0  0  0  0  0
  -37.2010   13.5670  -35.5220 C   0  0  1  0  0  0  0  0  0  0  0  0
  -38.4580   13.4090  -34.9620 F   0  0  0  0  0  0  0  0  0  0  0  0
  -37.1420   13.8520  -37.0050 C   0  0  0  0  0  2  0  0  0  0  0  0
  -36.7460   12.4890  -36.4830 C   0  0  0  0  0  2  0  0  0  0  0  0
  1  3  1  0
  1  5  1  0
  3  7  1  0
  4  2  1  0
  5 42  1  0
  5  6  1  0
  6 46  1  0
  6  2  1  0
  7  4  1  0
  8  9  1  0
  9 13  2  0
 10 12  2  0
 11  8  2  0
 11 10  1  0
 12 13  1  0
 12 14  1  0
 13  7  1  0
 15 20  1  0
 15 21  1  0
 16 15  1  0
 17 18  1  0
 17 16  1  0
 18 19  1  0
 19 20  1  0
 21 22  1  0
 21 11  1  0
 22 23  1  0
 24 22  1  0
 25 18  1  0
 26 25  1  0
 27 26  2  0
 28 29  2  0
 28 27  1  0
 29 30  1  0
 30 31  1  0
 30 25  2  0
 31 32  1  0
 33 31  1  0
 34 27  1  0
 34 39  1  0
 35 34  2  0
 36 35  1  0
 36 37  2  0
 37 38  1  0
 38 39  2  0
 40 41  1  0
 40 35  1  0
 42 45  1  0
 43 42  1  0
 44 42  1  0
 47 46  1  0
 47 48  1  0
 48 49  2  0
 49 55  1  0
 50 52  2  0
 51 50  1  0
 51 47  2  0
 52 49  1  0
 53 58  1  0
 53 56  1  0
 54 56  2  0
 55 57  1  0
 55 53  2  0
 57 54  1  0
 59 51  1  0
 60 61  2  0
 60 62  1  0
 62 59  1  0
 63 62  1  0
 64 68  2  0
 64 67  1  0
 65 69  1  0
 65 60  1  0
 66 67  1  0
 66 70  1  0
 67 65  1  0
 70 71  1  0
 70 69  1  0
 72 71  1  0
 73 77  1  0
 73 64  1  0
 77 75  1  6
 77 76  1  0
 77 74  1  0
 78 81  1  0
 78 73  1  0
 79 78  1  0
 80 79  2  0
 82 83  1  1
 82 79  1  0
 84 85  1  0
 84 82  1  0
 85 82  1  0
M  ISO  4   6 101  15 100  21 100  46 101
M  END
>  <TORSDO>  (76) 
F 17

>  <SCORE>  (76) 
-14.682

>  <name>  (76) 
75

>  <ligand_id>  (76) 
75

>  <original_smiles>  (76) 
[H]Oc1c([H])c([H])c([H])c([H])c1-c1nnc(N([H])[H])c(N2C([H])([H])C([H])([H])N(C(c3c([H])c([H])c(N4C([H])([H])C([H])([H])C([H])(Oc5c([H])c(-c6sc([H])nc6C([H])([H])[H])c([H])c([H])c5C([H])([H])N([H])C(=O)C5([H])N(C(=O)C([H])(N([H])C(=O)C6(F)C([H])([H])C6([H])[H])C(C([H])([H])[H])(C([H])([H])[H])C([H])([H])[H])C([H])([H])C([H])(O[H])C5([H])[H])C([H])([N+]([H])([H])[H])C([H])([H])C4([H])[H])c(C([H])([H])[H])c3[H])=[N+]([H])[H])C([H])([H])C2([H])[H])c1[H]

>  <smiles>  (76) 
[H]Oc1c([H])c([H])c([H])c([H])c1-c1nnc(N([H])[H])c(N2C([H])([H])C([H])([H])N(C(c3c([H])c([H])c(N4C([H])([H])C([H])([H])C([H])(Oc5c([H])c(-c6sc([H])nc6C([H])([H])[H])c([H])c([H])c5C([H])([H])N([H])C(=O)C5([H])N(C(=O)C([H])(N([H])C(=O)C6(F)C([H])([H])C6([H])[H])C(C([H])([H])[H])(C([H])([H])[H])C([H])([H])[H])C([H])([H])C([H])(O[H])C5([H])[H])C([H])([N+]([H])([H])[H])C([H])([H])C4([H])[H])c(C([H])([H])[H])c3[H])=[N+]([H])[H])C([H])([H])C2([H])[H])c1[H]

$$$$
76:0:0
     RDKit          3D

 82 90  0  0  1  0  0  0  0  0999 V2000
  -39.6470   17.3040  -25.6410 C   0  0  0  0  0  3  0  0  0  0  0  0
  -40.2060   16.1880  -24.9920 C   0  0  0  0  0  3  0  0  0  0  0  0
  -40.0740   18.5750  -25.2200 C   0  0  0  0  0  0  0  0  0  0  0  0
  -41.1150   16.4220  -23.9340 C   0  0  0  0  0  0  0  0  0  0  0  0
  -40.8040   13.0460  -22.9710 C   0  0  0  0  0  2  0  0  0  0  0  0
  -41.7440   14.0390  -23.6940 C   0  0  0  0  0  2  0  0  0  0  0  0
  -41.2340   15.4630  -21.7460 C   0  0  0  0  0  2  0  0  0  0  0  0
  -39.7820   14.9460  -21.5830 C   0  0  0  0  0  3  0  0  0  0  0  0
  -39.4920   13.6910  -22.4710 C   0  0  0  0  0  3  0  0  0  0  0  0
  -39.4920   14.7130  -20.0890 C   0  0  0  0  0  1  0  0  0  0  0  0
  -40.9740   18.7490  -24.2190 N   0  0  0  0  0  0  0  0  0  0  0  0
  -41.4810   17.6840  -23.5910 N   0  0  0  0  0  0  0  0  0  0  0  0
  -41.6600   15.3940  -23.1420 N   0  0  0  0  0  0  0  0  0  0  0  0
  -38.3040   20.3260  -25.1860 C   0  0  0  0  0  1  0  0  0  0  0  0
  -39.5580   19.8140  -25.9290 C   0  0  0  0  0  3  0  0  0  0  0  0
  -40.3490   19.4360  -28.3050 N   0  0  0  0  0  0  0  0  0  0  0  0
  -40.0850   19.4880  -29.7660 C   0  0  0  0  0  2  0  0  0  0  0  0
  -41.3310   19.4560  -30.6730 C   0  0  0  0  0  2  0  0  0  0  0  0
  -42.3680   18.6050  -30.1100 N   0  0  0  0  0  0  0  0  0  0  0  0
  -42.8570   18.9970  -28.8010 C   0  0  0  0  0  2  0  0  0  0  0  0
  -41.7520   19.4210  -27.8140 C   0  0  0  0  0  2  0  0  0  0  0  0
  -39.3130   19.6450  -27.4300 C   0  0  0  0  0  3  0  0  0  0  0  0
  -38.0430   19.7070  -27.8870 N   0  0  0  0  0  0  0  0  0  0  0  0
  -37.2740   19.8780  -27.2520 H   0  0  0  0  0  0  0  0  0  0  0  0
  -37.8100   19.6160  -28.8660 H   0  0  0  0  0  0  0  0  0  0  0  0
  -43.2840   18.0410  -31.0310 C   0  0  0  0  0  0  0  0  0  0  0  0
  -44.5920   18.5350  -31.2380 C   0  0  0  0  0  3  0  0  0  0  0  0
  -45.4390   17.8830  -32.1770 C   0  0  0  0  0  0  0  0  0  0  0  0
  -44.9780   16.7900  -32.8470 N   0  0  0  0  0  0  0  0  0  0  0  0
  -43.7540   16.2940  -32.6450 N   0  0  0  0  0  0  0  0  0  0  0  0
  -42.9230   16.8940  -31.7740 C   0  0  0  0  0  0  0  0  0  0  0  0
  -41.6890   16.2980  -31.5880 N   0  0  0  0  0  0  0  0  0  0  0  0
  -41.2480   16.5980  -30.7310 H   0  0  0  0  0  0  0  0  0  0  0  0
  -41.6500   15.3030  -31.7490 H   0  0  0  0  0  0  0  0  0  0  0  0
  -46.8460   18.3160  -32.4820 C   0  0  0  0  0  0  0  0  0  0  0  0
  -47.7420   17.6080  -33.3470 C   0  0  0  0  0  0  0  0  0  0  0  0
  -49.0560   18.0650  -33.5710 C   0  0  0  0  0  3  0  0  0  0  0  0
  -49.5240   19.2300  -32.9500 C   0  0  0  0  0  3  0  0  0  0  0  0
  -48.6680   19.9530  -32.1090 C   0  0  0  0  0  3  0  0  0  0  0  0
  -47.3540   19.5020  -31.8860 C   0  0  0  0  0  3  0  0  0  0  0  0
  -47.3970   16.4590  -34.0010 O   0  0  0  0  0  0  0  0  0  0  0  0
  -46.4850   16.2320  -33.8160 H   0  0  0  0  0  0  0  0  0  0  0  0
  -38.6550   14.0030  -23.6130 O   0  0  0  0  0  0  0  0  0  0  0  0
  -37.3730   13.4950  -23.5940 C   0  0  0  0  0  0  0  0  0  0  0  0
  -36.6300   13.4260  -22.3940 C   0  0  0  0  0  3  0  0  0  0  0  0
  -35.3650   12.8160  -22.3360 C   0  0  0  0  0  0  0  0  0  0  0  0
  -35.5000   12.4220  -24.7410 C   0  0  0  0  0  3  0  0  0  0  0  0
  -36.7910   13.0020  -24.7890 C   0  0  0  0  0  0  0  0  0  0  0  0
  -34.8020   12.3200  -23.5260 C   0  0  0  0  0  3  0  0  0  0  0  0
  -35.1270   12.1580  -19.8530 C   0  0  0  0  0  0  0  0  0  0  0  0
  -32.9650   12.5490  -19.3040 C   0  0  0  0  0  3  0  0  0  0  0  0
  -34.6670   12.6520  -21.0580 C   0  0  0  0  0  0  0  0  0  0  0  0
  -34.1420   12.1040  -18.8650 N   0  0  0  0  0  0  0  0  0  0  0  0
  -32.9760   13.0840  -20.9710 S   0  0  0  0  0  0  0  0  0  0  0  0
  -36.5020   11.6670  -19.5080 C   0  0  0  0  0  1  0  0  0  0  0  0
  -37.5770   13.0410  -26.0980 C   0  0  0  0  0  2  0  0  0  0  0  0
  -36.2200   13.7580  -28.0510 C   0  0  0  0  0  0  0  0  0  0  0  0
  -36.4720   14.9550  -27.9140 O   0  0  0  0  0  0  0  0  0  0  0  0
  -36.7620   12.8060  -27.2880 N   0  0  0  0  0  0  0  0  0  0  0  0
  -36.5260   11.8450  -27.4980 H   0  0  0  0  0  0  0  0  0  0  0  0
  -36.1830   14.4730  -31.0760 C   0  0  0  0  0  0  0  0  0  0  0  0
  -35.1940   13.2950  -29.1010 C   0  0  0  0  0  3  0  0  0  0  0  0
  -33.7220   14.4900  -30.5950 C   0  0  0  0  0  2  0  0  0  0  0  0
  -35.1170   14.1530  -30.2970 N   0  0  0  0  0  0  0  0  0  0  0  0
  -37.3110   14.0170  -30.8510 O   0  0  0  0  0  0  0  0  0  0  0  0
  -33.7900   13.3250  -28.4790 C   0  0  0  0  0  2  0  0  0  0  0  0
  -32.8680   13.6640  -29.6350 C   0  0  0  0  0  3  0  0  0  0  0  0
  -32.4470   12.4840  -30.3050 O   0  0  0  0  0  0  0  0  0  0  0  0
  -33.2180   12.0260  -30.6240 H   0  0  0  0  0  0  0  0  0  0  0  0
  -36.0010   15.3840  -32.3160 C   0  0  0  0  0  3  0  0  0  0  0  0
  -35.8430   17.4930  -30.8280 C   0  0  0  0  0  1  0  0  0  0  0  0
  -36.0330   17.7250  -33.2930 C   0  0  0  0  0  1  0  0  0  0  0  0
  -38.0120   16.9880  -31.9560 C   0  0  0  0  0  1  0  0  0  0  0  0
  -36.4800   16.8650  -32.0920 C   0  0  1  0  0  0  0  0  0  0  0  0
  -36.7420   14.7670  -33.4260 N   0  0  0  0  0  0  0  0  0  0  0  0
  -36.2170   14.2360  -34.5390 C   0  0  0  0  0  0  0  0  0  0  0  0
  -35.0070   14.2900  -34.7830 O   0  0  0  0  0  0  0  0  0  0  0  0
  -37.7350   14.6290  -33.2900 H   0  0  0  0  0  0  0  0  0  0  0  0
  -37.1930   13.5770  -35.4720 C   0  0  1  0  0  0  0  0  0  0  0  0
  -38.4610   13.4170  -34.9350 F   0  0  0  0  0  0  0  0  0  0  0  0
  -37.1100   13.8600  -36.9550 C   0  0  0  0  0  2  0  0  0  0  0  0
  -36.7130   12.4990  -36.4250 C   0  0  0  0  0  2  0  0  0  0  0  0
  1  3  2  0
  1  2  1  0
  2  4  2  0
  3 11  1  0
  4 12  1  0
  4 13  1  0
  5  9  1  0
  6 13  1  0
  6  5  1  0
  7  8  1  0
  8 10  1  0
  9 43  1  0
  9  8  1  0
 11 12  2  0
 13  7  1  0
 15  3  1  0
 15 14  1  0
 16 21  1  0
 16 22  1  0
 17 16  1  0
 18 19  1  0
 18 17  1  0
 19 20  1  0
 20 21  1  0
 22 23  1  0
 22 15  1  0
 23 24  1  0
 25 23  1  0
 26 19  1  0
 27 26  1  0
 28 27  2  0
 29 30  2  0
 29 28  1  0
 30 31  1  0
 31 32  1  0
 31 26  2  0
 32 33  1  0
 34 32  1  0
 35 28  1  0
 35 40  1  0
 36 35  2  0
 37 36  1  0
 37 38  2  0
 38 39  1  0
 39 40  2  0
 41 42  1  0
 41 36  1  0
 43 44  1  0
 44 45  1  0
 45 46  2  0
 46 52  1  0
 47 49  2  0
 48 47  1  0
 48 44  2  0
 49 46  1  0
 50 55  1  0
 50 53  1  0
 51 53  2  0
 52 54  1  0
 52 50  2  0
 54 51  1  0
 56 48  1  0
 57 58  2  0
 57 59  1  0
 59 56  1  0
 60 59  1  0
 61 65  2  0
 61 64  1  0
 62 66  1  0
 62 57  1  0
 63 64  1  0
 63 67  1  0
 64 62  1  0
 67 68  1  0
 67 66  1  0
 69 68  1  0
 70 74  1  0
 70 61  1  0
 74 72  1  6
 74 73  1  0
 74 71  1  0
 75 78  1  0
 75 70  1  0
 76 75  1  0
 77 76  2  0
 79 80  1  1
 79 76  1  0
 81 82  1  0
 81 79  1  0
 82 79  1  0
M  ISO  4   9 101  16 100  22 100  43 101
M  END
>  <TORSDO>  (77) 
F 16

>  <SCORE>  (77) 
-14.782

>  <name>  (77) 
76

>  <ligand_id>  (77) 
76

>  <original_smiles>  (77) 
[H]Oc1c([H])c([H])c([H])c([H])c1-c1nnc(N([H])[H])c(N2C([H])([H])C([H])([H])N(C(=[N+]([H])[H])C([H])(c3nnc(N4C([H])([H])C([H])([H])C([H])(Oc5c([H])c(-c6sc([H])nc6C([H])([H])[H])c([H])c([H])c5C([H])([H])N([H])C(=O)C5([H])N(C(=O)C([H])(N([H])C(=O)C6(F)C([H])([H])C6([H])[H])C(C([H])([H])[H])(C([H])([H])[H])C([H])([H])[H])C([H])([H])C([H])(O[H])C5([H])[H])C([H])(C([H])([H])[H])C4([H])[H])c([H])c3[H])C([H])([H])[H])C([H])([H])C2([H])[H])c1[H]

>  <smiles>  (77) 
[H]Oc1c([H])c([H])c([H])c([H])c1-c1nnc(N([H])[H])c(N2C([H])([H])C([H])([H])N(C(=[N+]([H])[H])C([H])(c3nnc(N4C([H])([H])C([H])([H])C([H])(Oc5c([H])c(-c6sc([H])nc6C([H])([H])[H])c([H])c([H])c5C([H])([H])N([H])C(=O)C5([H])N(C(=O)C([H])(N([H])C(=O)C6(F)C([H])([H])C6([H])[H])C(C([H])([H])[H])(C([H])([H])[H])C([H])([H])[H])C([H])([H])C([H])(O[H])C5([H])[H])C([H])(C([H])([H])[H])C4([H])[H])c([H])c3[H])C([H])([H])[H])C([H])([H])C2([H])[H])c1[H]

$$$$
77:0:0
     RDKit          3D

 71 78  0  0  1  0  0  0  0  0999 V2000
  -37.4100   13.6290  -23.7850 C   0  0  0  0  0  0  0  0  0  0  0  0
  -36.7370   13.5620  -22.5320 C   0  0  0  0  0  3  0  0  0  0  0  0
  -35.4720   12.9280  -22.3940 C   0  0  0  0  0  0  0  0  0  0  0  0
  -35.5520   12.3790  -24.7740 C   0  0  0  0  0  3  0  0  0  0  0  0
  -36.8240   12.9830  -24.9040 C   0  0  0  0  0  0  0  0  0  0  0  0
  -34.8790   12.3640  -23.5420 C   0  0  0  0  0  3  0  0  0  0  0  0
  -35.2300   12.3470  -19.8840 C   0  0  0  0  0  0  0  0  0  0  0  0
  -33.0710   12.7660  -19.3350 C   0  0  0  0  0  3  0  0  0  0  0  0
  -34.7760   12.8090  -21.1050 C   0  0  0  0  0  0  0  0  0  0  0  0
  -34.2500   12.3310  -18.8880 N   0  0  0  0  0  0  0  0  0  0  0  0
  -33.0800   13.2450  -21.0210 S   0  0  0  0  0  0  0  0  0  0  0  0
  -36.5970   11.8530  -19.5300 C   0  0  0  0  0  1  0  0  0  0  0  0
  -37.5810   12.8720  -26.2290 C   0  0  0  0  0  2  0  0  0  0  0  0
  -36.2040   13.6840  -28.1180 C   0  0  0  0  0  0  0  0  0  0  0  0
  -36.5000   14.8720  -27.9640 O   0  0  0  0  0  0  0  0  0  0  0  0
  -36.7160   12.6960  -27.3820 N   0  0  0  0  0  0  0  0  0  0  0  0
  -36.4330   11.7490  -27.5980 H   0  0  0  0  0  0  0  0  0  0  0  0
  -36.1240   14.4300  -31.1330 C   0  0  0  0  0  0  0  0  0  0  0  0
  -35.1470   13.2600  -29.1480 C   0  0  0  0  0  3  0  0  0  0  0  0
  -33.6700   14.4950  -30.6030 C   0  0  0  0  0  2  0  0  0  0  0  0
  -35.0670   14.1310  -30.3340 N   0  0  0  0  0  0  0  0  0  0  0  0
  -37.2470   13.9520  -30.9320 O   0  0  0  0  0  0  0  0  0  0  0  0
  -33.7550   13.3150  -28.4980 C   0  0  0  0  0  2  0  0  0  0  0  0
  -32.8210   13.6770  -29.6330 C   0  0  0  0  0  3  0  0  0  0  0  0
  -32.3760   12.5070  -30.3000 O   0  0  0  0  0  0  0  0  0  0  0  0
  -33.1380   12.0360  -30.6250 H   0  0  0  0  0  0  0  0  0  0  0  0
  -35.9350   15.3550  -32.3650 C   0  0  0  0  0  3  0  0  0  0  0  0
  -36.6810   14.7520  -33.4820 N   0  0  0  0  0  0  0  0  0  0  0  0
  -36.1600   14.2300  -34.6010 C   0  0  0  0  0  0  0  0  0  0  0  0
  -34.9510   14.2730  -34.8450 O   0  0  0  0  0  0  0  0  0  0  0  0
  -37.6730   14.6160  -33.3420 H   0  0  0  0  0  0  0  0  0  0  0  0
  -37.1450   13.5830  -35.5380 C   0  0  1  0  0  0  0  0  0  0  0  0
  -38.4110   13.4240  -34.9990 F   0  0  0  0  0  0  0  0  0  0  0  0
  -37.0650   13.8780  -37.0180 C   0  0  0  0  0  2  0  0  0  0  0  0
  -36.6770   12.5110  -36.4990 C   0  0  0  0  0  2  0  0  0  0  0  0
  -35.7370   17.4560  -30.8710 C   0  0  0  0  0  1  0  0  0  0  0  0
  -35.9760   17.7010  -33.3290 C   0  0  0  0  0  1  0  0  0  0  0  0
  -37.9340   16.9600  -31.9520 C   0  0  0  0  0  1  0  0  0  0  0  0
  -36.4040   16.8370  -32.1220 C   0  0  1  0  0  0  0  0  0  0  0  0
  -38.6430   14.2650  -23.9020 O   0  0  0  0  0  0  0  0  0  0  0  0
  -38.0130   17.4590  -25.7250 C   0  0  0  0  0  3  0  0  0  0  0  0
  -37.8230   16.4350  -24.7670 C   0  0  0  0  0  3  0  0  0  0  0  0
  -39.1380   17.4230  -26.5930 C   0  0  0  0  0  0  0  0  0  0  0  0
  -38.7830   15.4070  -24.7010 C   0  0  0  0  0  0  0  0  0  0  0  0
  -40.0680   16.4360  -26.4200 N   0  0  0  0  0  0  0  0  0  0  0  0
  -39.9060   15.4730  -25.4790 N   0  0  0  0  0  0  0  0  0  0  0  0
  -40.1300   18.9700  -28.4250 N   0  0  0  0  0  0  0  0  0  0  0  0
  -39.9700   19.5670  -29.7770 C   0  0  0  0  0  2  0  0  0  0  0  0
  -41.2400   19.5090  -30.6670 C   0  0  0  0  0  2  0  0  0  0  0  0
  -42.2490   18.6100  -30.1180 N   0  0  0  0  0  0  0  0  0  0  0  0
  -42.6220   18.8070  -28.7180 C   0  0  0  0  0  2  0  0  0  0  0  0
  -41.4390   19.3220  -27.8470 C   0  0  0  0  0  2  0  0  0  0  0  0
  -39.0810   18.2710  -27.8730 C   0  0  0  0  0  0  0  0  0  0  0  0
  -37.9720   18.3100  -28.4250 O   0  0  0  0  0  0  0  0  0  0  0  0
  -43.1750   18.0270  -31.0180 C   0  0  0  0  0  0  0  0  0  0  0  0
  -44.4760   18.5370  -31.2320 C   0  0  0  0  0  3  0  0  0  0  0  0
  -45.3460   17.8660  -32.1380 C   0  0  0  0  0  0  0  0  0  0  0  0
  -44.9100   16.7450  -32.7810 N   0  0  0  0  0  0  0  0  0  0  0  0
  -43.6880   16.2420  -32.5840 N   0  0  0  0  0  0  0  0  0  0  0  0
  -42.8400   16.8560  -31.7350 C   0  0  0  0  0  0  0  0  0  0  0  0
  -41.6110   16.2480  -31.5530 N   0  0  0  0  0  0  0  0  0  0  0  0
  -41.1460   16.5850  -30.7190 H   0  0  0  0  0  0  0  0  0  0  0  0
  -41.5950   15.2440  -31.6640 H   0  0  0  0  0  0  0  0  0  0  0  0
  -46.7540   18.3060  -32.4360 C   0  0  0  0  0  0  0  0  0  0  0  0
  -47.6580   17.6120  -33.3080 C   0  0  0  0  0  0  0  0  0  0  0  0
  -48.9720   18.0750  -33.5200 C   0  0  0  0  0  3  0  0  0  0  0  0
  -49.4360   19.2360  -32.8850 C   0  0  0  0  0  3  0  0  0  0  0  0
  -48.5730   19.9420  -32.0350 C   0  0  0  0  0  3  0  0  0  0  0  0
  -47.2600   19.4820  -31.8210 C   0  0  0  0  0  3  0  0  0  0  0  0
  -47.3220   16.4710  -33.9820 O   0  0  0  0  0  0  0  0  0  0  0  0
  -46.4110   16.2330  -33.8020 H   0  0  0  0  0  0  0  0  0  0  0  0
  1  2  1  0
  2  3  2  0
  3  9  1  0
  4  6  2  0
  5  4  1  0
  5  1  2  0
  6  3  1  0
  7 12  1  0
  7 10  1  0
  8 10  2  0
  9 11  1  0
  9  7  2  0
 11  8  1  0
 13  5  1  0
 14 15  2  0
 14 16  1  0
 16 13  1  0
 17 16  1  0
 18 22  2  0
 18 21  1  0
 19 23  1  0
 19 14  1  0
 20 21  1  0
 20 24  1  0
 21 19  1  0
 24 25  1  0
 24 23  1  0
 26 25  1  0
 27 39  1  0
 27 18  1  0
 28 31  1  0
 28 27  1  0
 29 28  1  0
 30 29  2  0
 32 33  1  1
 32 29  1  0
 34 35  1  0
 34 32  1  0
 35 32  1  0
 39 37  1  6
 39 38  1  0
 39 36  1  0
 40  1  1  0
 41 42  2  0
 42 44  1  0
 43 45  2  0
 43 41  1  0
 44 40  1  0
 45 46  1  0
 46 44  2  0
 47 53  1  0
 47 52  1  0
 48 47  1  0
 49 50  1  0
 49 48  1  0
 50 51  1  0
 51 52  1  0
 53 43  1  0
 54 53  2  0
 55 50  1  0
 56 55  1  0
 57 56  2  0
 58 59  2  0
 58 57  1  0
 59 60  1  0
 60 61  1  0
 60 55  2  0
 61 62  1  0
 63 61  1  0
 64 57  1  0
 64 69  1  0
 65 64  2  0
 66 65  1  0
 66 67  2  0
 67 68  1  0
 68 69  2  0
 70 71  1  0
 70 65  1  0
M  ISO  4  40 101  44 101  47 100  53 100
M  END
>  <TORSDO>  (78) 
F 15

>  <SCORE>  (78) 
-14.844

>  <name>  (78) 
77

>  <ligand_id>  (78) 
77

>  <original_smiles>  (78) 
[H]Oc1c([H])c([H])c([H])c([H])c1-c1nnc(N([H])[H])c(N2C([H])([H])C([H])([H])N(C(=O)c3nnc(Oc4c([H])c(-c5sc([H])nc5C([H])([H])[H])c([H])c([H])c4C([H])([H])N([H])C(=O)C4([H])N(C(=O)C([H])(N([H])C(=O)C5(F)C([H])([H])C5([H])[H])C(C([H])([H])[H])(C([H])([H])[H])C([H])([H])[H])C([H])([H])C([H])(O[H])C4([H])[H])c([H])c3[H])C([H])([H])C2([H])[H])c1[H]

>  <smiles>  (78) 
[H]Oc1c([H])c([H])c([H])c([H])c1-c1nnc(N([H])[H])c(N2C([H])([H])C([H])([H])N(C(=O)c3nnc(Oc4c([H])c(-c5sc([H])nc5C([H])([H])[H])c([H])c([H])c4C([H])([H])N([H])C(=O)C4([H])N(C(=O)C([H])(N([H])C(=O)C5(F)C([H])([H])C5([H])[H])C(C([H])([H])[H])(C([H])([H])[H])C([H])([H])[H])C([H])([H])C([H])(O[H])C4([H])[H])c([H])c3[H])C([H])([H])C2([H])[H])c1[H]

$$$$
78:0:0
     RDKit          3D

 76 84  0  0  1  0  0  0  0  0999 V2000
  -37.4550   13.4590  -23.6710 C   0  0  0  0  0  0  0  0  0  0  0  0
  -36.7420   13.4090  -22.4600 C   0  0  0  0  0  3  0  0  0  0  0  0
  -35.4630   12.8330  -22.3730 C   0  0  0  0  0  0  0  0  0  0  0  0
  -35.5650   12.3820  -24.7740 C   0  0  0  0  0  3  0  0  0  0  0  0
  -36.8640   12.9390  -24.8600 C   0  0  0  0  0  0  0  0  0  0  0  0
  -34.8740   12.3330  -23.5510 C   0  0  0  0  0  3  0  0  0  0  0  0
  -35.2580   12.2550  -19.8680 C   0  0  0  0  0  0  0  0  0  0  0  0
  -33.1030   12.6720  -19.3090 C   0  0  0  0  0  3  0  0  0  0  0  0
  -34.7850   12.7100  -21.0850 C   0  0  0  0  0  0  0  0  0  0  0  0
  -34.2830   12.2360  -18.8680 N   0  0  0  0  0  0  0  0  0  0  0  0
  -33.0980   13.1560  -20.9920 S   0  0  0  0  0  0  0  0  0  0  0  0
  -36.6270   11.7530  -19.5160 C   0  0  0  0  0  1  0  0  0  0  0  0
  -37.6090   12.9090  -26.2000 C   0  0  0  0  0  2  0  0  0  0  0  0
  -36.2140   13.6820  -28.0970 C   0  0  0  0  0  0  0  0  0  0  0  0
  -36.4720   14.8760  -27.9330 O   0  0  0  0  0  0  0  0  0  0  0  0
  -36.7560   12.7040  -27.3620 N   0  0  0  0  0  0  0  0  0  0  0  0
  -36.5150   11.7490  -27.5920 H   0  0  0  0  0  0  0  0  0  0  0  0
  -36.1410   14.4290  -31.1180 C   0  0  0  0  0  0  0  0  0  0  0  0
  -35.1690   13.2460  -29.1340 C   0  0  0  0  0  3  0  0  0  0  0  0
  -33.6850   14.4790  -30.5900 C   0  0  0  0  0  2  0  0  0  0  0  0
  -35.0840   14.1210  -30.3200 N   0  0  0  0  0  0  0  0  0  0  0  0
  -37.2680   13.9620  -30.9130 O   0  0  0  0  0  0  0  0  0  0  0  0
  -33.7720   13.2830  -28.4910 C   0  0  0  0  0  2  0  0  0  0  0  0
  -32.8400   13.6540  -29.6250 C   0  0  0  0  0  3  0  0  0  0  0  0
  -32.4030   12.4830  -30.2970 O   0  0  0  0  0  0  0  0  0  0  0  0
  -33.1700   12.0120  -30.6070 H   0  0  0  0  0  0  0  0  0  0  0  0
  -35.9460   15.3510  -32.3510 C   0  0  0  0  0  3  0  0  0  0  0  0
  -36.7100   14.7600  -33.4630 N   0  0  0  0  0  0  0  0  0  0  0  0
  -36.2050   14.2100  -34.5760 C   0  0  0  0  0  0  0  0  0  0  0  0
  -34.9950   14.2120  -34.8160 O   0  0  0  0  0  0  0  0  0  0  0  0
  -37.7070   14.6490  -33.3220 H   0  0  0  0  0  0  0  0  0  0  0  0
  -37.2080   13.5880  -35.5090 C   0  0  1  0  0  0  0  0  0  0  0  0
  -38.4820   13.4850  -34.9750 F   0  0  0  0  0  0  0  0  0  0  0  0
  -37.1080   13.8560  -36.9930 C   0  0  0  0  0  2  0  0  0  0  0  0
  -36.7750   12.4840  -36.4530 C   0  0  0  0  0  2  0  0  0  0  0  0
  -35.6760   17.4540  -30.8760 C   0  0  0  0  0  1  0  0  0  0  0  0
  -35.9810   17.6960  -33.3240 C   0  0  0  0  0  1  0  0  0  0  0  0
  -37.9120   16.9890  -31.8970 C   0  0  0  0  0  1  0  0  0  0  0  0
  -36.3880   16.8410  -32.1050 C   0  0  1  0  0  0  0  0  0  0  0  0
  -38.7330   13.9570  -23.5650 O   0  0  0  0  0  0  0  0  0  0  0  0
  -38.4920   16.9240  -25.6760 C   0  0  0  0  0  3  0  0  0  0  0  0
  -39.4480   16.5070  -26.6140 C   0  0  0  0  0  0  0  0  0  0  0  0
  -40.3730   15.5080  -26.3420 C   0  0  0  0  0  0  0  0  0  0  0  0
  -39.1290   14.9800  -24.3640 C   0  0  0  0  0  0  0  0  0  0  0  0
  -38.3520   16.1600  -24.5090 C   0  0  0  0  0  0  0  0  0  0  0  0
  -40.2390   14.7230  -25.1960 C   0  0  0  0  0  0  0  0  0  0  0  0
  -41.2750   15.2300  -27.5110 C   0  0  0  0  0  2  0  0  0  0  0  0
  -40.6110   16.0020  -28.6600 C   0  0  0  0  0  2  0  0  0  0  0  0
  -39.4220   16.8000  -28.0710 C   0  0  0  0  0  3  0  0  0  0  0  0
  -37.1440   16.6130  -23.3580 Cl  0  0  0  0  0  0  0  0  0  0  0  0
  -41.2310   13.3270  -24.9610 Cl  0  0  0  0  0  0  0  0  0  0  0  0
  -40.1990   19.1620  -28.5150 N   0  0  0  0  0  0  0  0  0  0  0  0
  -40.1870   20.0070  -29.6980 C   0  0  0  0  0  2  0  0  0  0  0  0
  -41.3100   19.6150  -30.6860 C   0  0  0  0  0  2  0  0  0  0  0  0
  -42.2650   18.6590  -30.1210 N   0  0  0  0  0  0  0  0  0  0  0  0
  -42.6640   18.7860  -28.7140 C   0  0  0  0  0  2  0  0  0  0  0  0
  -41.4880   19.2440  -27.8120 C   0  0  0  0  0  2  0  0  0  0  0  0
  -39.1940   18.2720  -28.4250 C   0  0  0  0  0  0  0  0  0  0  0  0
  -38.0420   18.5880  -28.7450 O   0  0  0  0  0  0  0  0  0  0  0  0
  -43.1350   18.0030  -31.0170 C   0  0  0  0  0  0  0  0  0  0  0  0
  -44.4600   18.4380  -31.2200 C   0  0  0  0  0  3  0  0  0  0  0  0
  -45.2770   17.7520  -32.1570 C   0  0  0  0  0  0  0  0  0  0  0  0
  -44.7710   16.6820  -32.8350 N   0  0  0  0  0  0  0  0  0  0  0  0
  -43.5270   16.2420  -32.6430 N   0  0  0  0  0  0  0  0  0  0  0  0
  -42.7250   16.8730  -31.7660 C   0  0  0  0  0  0  0  0  0  0  0  0
  -41.4570   16.3380  -31.6360 N   0  0  0  0  0  0  0  0  0  0  0  0
  -40.7880   16.9320  -31.1710 H   0  0  0  0  0  0  0  0  0  0  0  0
  -41.1040   15.7830  -32.4010 H   0  0  0  0  0  0  0  0  0  0  0  0
  -46.6980   18.1320  -32.4610 C   0  0  0  0  0  0  0  0  0  0  0  0
  -47.5650   17.3960  -33.3310 C   0  0  0  0  0  0  0  0  0  0  0  0
  -48.8970   17.8030  -33.5500 C   0  0  0  0  0  3  0  0  0  0  0  0
  -49.4110   18.9470  -32.9200 C   0  0  0  0  0  3  0  0  0  0  0  0
  -48.5820   19.6940  -32.0730 C   0  0  0  0  0  3  0  0  0  0  0  0
  -47.2520   19.2910  -31.8530 C   0  0  0  0  0  3  0  0  0  0  0  0
  -47.1780   16.2670  -33.9970 O   0  0  0  0  0  0  0  0  0  0  0  0
  -46.2570   16.0710  -33.8170 H   0  0  0  0  0  0  0  0  0  0  0  0
  1 40  1  0
  1  2  1  0
  2  3  2  0
  3  9  1  0
  4  6  2  0
  5  4  1  0
  5  1  2  0
  6  3  1  0
  7 12  1  0
  7 10  1  0
  8 10  2  0
  9 11  1  0
  9  7  2  0
 11  8  1  0
 13  5  1  0
 14 15  2  0
 14 16  1  0
 16 13  1  0
 17 16  1  0
 18 22  2  0
 18 21  1  0
 19 23  1  0
 19 14  1  0
 20 21  1  0
 20 24  1  0
 21 19  1  0
 24 25  1  0
 24 23  1  0
 26 25  1  0
 27 39  1  0
 27 18  1  0
 28 31  1  0
 28 27  1  0
 29 28  1  0
 30 29  2  0
 32 33  1  1
 32 29  1  0
 34 35  1  0
 34 32  1  0
 35 32  1  0
 39 37  1  6
 39 38  1  0
 39 36  1  0
 41 45  1  0
 42 43  1  0
 42 41  2  0
 43 46  2  0
 44 40  1  0
 45 44  2  0
 45 50  1  0
 46 51  1  0
 46 44  1  0
 47 43  1  0
 48 49  1  0
 48 47  1  0
 49 58  1  0
 49 42  1  0
 52 58  1  0
 52 57  1  0
 53 52  1  0
 54 55  1  0
 54 53  1  0
 55 56  1  0
 56 57  1  0
 59 58  2  0
 60 55  1  0
 61 60  1  0
 62 61  2  0
 63 64  2  0
 63 62  1  0
 64 65  1  0
 65 66  1  0
 65 60  2  0
 66 67  1  0
 68 66  1  0
 69 62  1  0
 69 74  1  0
 70 69  2  0
 71 70  1  0
 71 72  2  0
 72 73  1  0
 73 74  2  0
 75 76  1  0
 75 70  1  0
M  ISO  4  40 101  44 101  52 100  58 100
M  END
>  <TORSDO>  (79) 
F 15

>  <SCORE>  (79) 
-15.313

>  <name>  (79) 
78

>  <ligand_id>  (79) 
78

>  <original_smiles>  (79) 
[H]Oc1c([H])c([H])c([H])c([H])c1-c1nnc(N([H])[H])c(N2C([H])([H])C([H])([H])N(C(=O)C3([H])c4c([H])c(Cl)c(Oc5c([H])c(-c6sc([H])nc6C([H])([H])[H])c([H])c([H])c5C([H])([H])N([H])C(=O)C5([H])N(C(=O)C([H])(N([H])C(=O)C6(F)C([H])([H])C6([H])[H])C(C([H])([H])[H])(C([H])([H])[H])C([H])([H])[H])C([H])([H])C([H])(O[H])C5([H])[H])c(Cl)c4C([H])([H])C3([H])[H])C([H])([H])C2([H])[H])c1[H]

>  <smiles>  (79) 
[H]Oc1c([H])c([H])c([H])c([H])c1-c1nnc(N([H])[H])c(N2C([H])([H])C([H])([H])N(C(=O)C3([H])c4c([H])c(Cl)c(Oc5c([H])c(-c6sc([H])nc6C([H])([H])[H])c([H])c([H])c5C([H])([H])N([H])C(=O)C5([H])N(C(=O)C([H])(N([H])C(=O)C6(F)C([H])([H])C6([H])[H])C(C([H])([H])[H])(C([H])([H])[H])C([H])([H])[H])C([H])([H])C([H])(O[H])C5([H])[H])c(Cl)c4C([H])([H])C3([H])[H])C([H])([H])C2([H])[H])c1[H]

$$$$
79:0:0
     RDKit          3D

 76 84  0  0  1  0  0  0  0  0999 V2000
  -37.4460   13.5270  -23.7890 C   0  0  0  0  0  0  0  0  0  0  0  0
  -36.7670   13.4320  -22.5460 C   0  0  0  0  0  3  0  0  0  0  0  0
  -35.5320   12.7620  -22.4300 C   0  0  0  0  0  0  0  0  0  0  0  0
  -35.6140   12.2840  -24.8240 C   0  0  0  0  0  3  0  0  0  0  0  0
  -36.8630   12.9350  -24.9350 C   0  0  0  0  0  0  0  0  0  0  0  0
  -34.9540   12.2040  -23.5860 C   0  0  0  0  0  3  0  0  0  0  0  0
  -35.3980   12.1940  -19.9200 C   0  0  0  0  0  0  0  0  0  0  0  0
  -33.2330   12.4810  -19.3210 C   0  0  0  0  0  3  0  0  0  0  0  0
  -34.8770   12.6090  -21.1310 C   0  0  0  0  0  0  0  0  0  0  0  0
  -34.4470   12.1240  -18.9000 N   0  0  0  0  0  0  0  0  0  0  0  0
  -33.1670   12.9510  -21.0080 S   0  0  0  0  0  0  0  0  0  0  0  0
  -36.8060   11.7970  -19.5990 C   0  0  0  0  0  1  0  0  0  0  0  0
  -37.6070   12.9760  -26.2700 C   0  0  0  0  0  2  0  0  0  0  0  0
  -36.1850   13.7190  -28.1600 C   0  0  0  0  0  0  0  0  0  0  0  0
  -36.4370   14.9170  -28.0040 O   0  0  0  0  0  0  0  0  0  0  0  0
  -36.7520   12.7540  -27.4310 N   0  0  0  0  0  0  0  0  0  0  0  0
  -36.5140   11.7950  -27.6450 H   0  0  0  0  0  0  0  0  0  0  0  0
  -36.0730   14.4290  -31.1840 C   0  0  0  0  0  0  0  0  0  0  0  0
  -35.1270   13.2660  -29.1790 C   0  0  0  0  0  3  0  0  0  0  0  0
  -33.6260   14.4780  -30.6340 C   0  0  0  0  0  2  0  0  0  0  0  0
  -35.0270   14.1270  -30.3740 N   0  0  0  0  0  0  0  0  0  0  0  0
  -37.2010   13.9620  -30.9900 O   0  0  0  0  0  0  0  0  0  0  0  0
  -33.7380   13.3100  -28.5220 C   0  0  0  0  0  2  0  0  0  0  0  0
  -32.7890   13.6610  -29.6510 C   0  0  0  0  0  3  0  0  0  0  0  0
  -32.3440   12.4860  -30.3090 O   0  0  0  0  0  0  0  0  0  0  0  0
  -33.1040   12.0150  -30.6340 H   0  0  0  0  0  0  0  0  0  0  0  0
  -35.8660   15.3460  -32.4200 C   0  0  0  0  0  3  0  0  0  0  0  0
  -36.6140   14.7460  -33.5380 N   0  0  0  0  0  0  0  0  0  0  0  0
  -36.0950   14.2060  -34.6500 C   0  0  0  0  0  0  0  0  0  0  0  0
  -34.8860   14.2300  -34.8870 O   0  0  0  0  0  0  0  0  0  0  0  0
  -37.6090   14.6240  -33.4030 H   0  0  0  0  0  0  0  0  0  0  0  0
  -37.0850   13.5670  -35.5880 C   0  0  1  0  0  0  0  0  0  0  0  0
  -38.3560   13.4290  -35.0530 F   0  0  0  0  0  0  0  0  0  0  0  0
  -36.9930   13.8530  -37.0690 C   0  0  0  0  0  2  0  0  0  0  0  0
  -36.6270   12.4840  -36.5400 C   0  0  0  0  0  2  0  0  0  0  0  0
  -35.6650   17.4450  -30.9250 C   0  0  0  0  0  1  0  0  0  0  0  0
  -35.8540   17.6900  -33.3870 C   0  0  0  0  0  1  0  0  0  0  0  0
  -37.8480   16.9830  -32.0490 C   0  0  0  0  0  1  0  0  0  0  0  0
  -36.3170   16.8350  -32.1890 C   0  0  1  0  0  0  0  0  0  0  0  0
  -38.6640   14.1560  -23.9630 O   0  0  0  0  0  0  0  0  0  0  0  0
  -40.7950   14.6580  -23.0660 C   0  0  0  0  0  1  0  0  0  0  0  0
  -39.2870   14.8960  -22.9090 C   0  0  0  0  0  3  0  0  0  0  0  0
  -40.1690   19.2480  -28.6330 N   0  0  0  0  0  0  0  0  0  0  0  0
  -39.9590   19.5460  -30.0560 C   0  0  0  0  0  2  0  0  0  0  0  0
  -41.2470   19.4810  -30.9140 C   0  0  0  0  0  2  0  0  0  0  0  0
  -42.2730   18.6410  -30.3010 N   0  0  0  0  0  0  0  0  0  0  0  0
  -42.6410   18.9260  -28.9140 C   0  0  0  0  0  2  0  0  0  0  0  0
  -41.4980   19.6000  -28.1180 C   0  0  0  0  0  2  0  0  0  0  0  0
  -37.0170   19.8400  -27.2730 C   0  0  0  0  0  2  0  0  0  0  0  0
  -38.2270   18.7500  -25.7940 C   0  0  0  0  0  0  0  0  0  0  0  0
  -39.0840   19.2490  -27.7630 C   0  0  0  0  0  0  0  0  0  0  0  0
  -37.4490   16.7630  -22.8470 C   0  0  0  0  0  2  0  0  0  0  0  0
  -37.3510   18.1400  -23.4990 C   0  0  0  0  0  2  0  0  0  0  0  0
  -39.3240   17.0650  -24.3240 C   0  0  0  0  0  2  0  0  0  0  0  0
  -38.9310   16.4000  -22.9980 C   0  0  0  0  0  3  0  0  0  0  0  0
  -37.0690   19.3300  -26.0500 N   0  0  0  0  0  0  0  0  0  0  0  0
  -37.9760   19.8330  -28.1880 N   0  0  0  0  0  0  0  0  0  0  0  0
  -39.2820   18.6820  -26.5870 N   0  0  0  0  0  2  0  0  0  0  0  0
  -38.3600   18.1360  -24.5540 N   0  0  0  0  0  0  0  0  0  0  0  0
  -43.2240   18.0430  -31.1560 C   0  0  0  0  0  0  0  0  0  0  0  0
  -44.5240   18.5590  -31.3420 C   0  0  0  0  0  3  0  0  0  0  0  0
  -45.4200   17.8770  -32.2100 C   0  0  0  0  0  0  0  0  0  0  0  0
  -45.0070   16.7420  -32.8440 N   0  0  0  0  0  0  0  0  0  0  0  0
  -43.7850   16.2330  -32.6680 N   0  0  0  0  0  0  0  0  0  0  0  0
  -42.9110   16.8560  -31.8540 C   0  0  0  0  0  0  0  0  0  0  0  0
  -41.6810   16.2460  -31.6880 N   0  0  0  0  0  0  0  0  0  0  0  0
  -41.1970   16.5980  -30.8700 H   0  0  0  0  0  0  0  0  0  0  0  0
  -41.6740   15.2400  -31.7730 H   0  0  0  0  0  0  0  0  0  0  0  0
  -46.8320   18.3230  -32.4780 C   0  0  0  0  0  0  0  0  0  0  0  0
  -47.7620   17.6210  -33.3140 C   0  0  0  0  0  0  0  0  0  0  0  0
  -49.0770   18.0900  -33.5020 C   0  0  0  0  0  3  0  0  0  0  0  0
  -49.5160   19.2640  -32.8730 C   0  0  0  0  0  3  0  0  0  0  0  0
  -48.6290   19.9790  -32.0580 C   0  0  0  0  0  3  0  0  0  0  0  0
  -47.3140   19.5130  -31.8700 C   0  0  0  0  0  3  0  0  0  0  0  0
  -47.4490   16.4670  -33.9760 O   0  0  0  0  0  0  0  0  0  0  0  0
  -46.5360   16.2250  -33.8130 H   0  0  0  0  0  0  0  0  0  0  0  0
  1  2  1  0
  2  3  2  0
  3  9  1  0
  4  6  2  0
  5  4  1  0
  5  1  2  0
  6  3  1  0
  7 12  1  0
  7 10  1  0
  8 10  2  0
  9 11  1  0
  9  7  2  0
 11  8  1  0
 13  5  1  0
 14 15  2  0
 14 16  1  0
 16 13  1  0
 17 16  1  0
 18 22  2  0
 18 21  1  0
 19 23  1  0
 19 14  1  0
 20 21  1  0
 20 24  1  0
 21 19  1  0
 24 25  1  0
 24 23  1  0
 26 25  1  0
 27 39  1  0
 27 18  1  0
 28 31  1  0
 28 27  1  0
 29 28  1  0
 30 29  2  0
 32 33  1  1
 32 29  1  0
 34 35  1  0
 34 32  1  0
 35 32  1  0
 39 37  1  6
 39 38  1  0
 39 36  1  0
 40  1  1  0
 40 42  1  0
 42 41  1  0
 43 48  1  0
 43 51  1  0
 44 43  1  0
 45 46  1  0
 45 44  1  0
 46 47  1  0
 47 48  1  0
 49 56  1  0
 50 59  1  0
 51 58  1  0
 53 52  1  0
 54 55  1  0
 55 42  1  0
 55 52  1  0
 56 50  2  0
 57 51  2  0
 57 49  1  0
 58 50  1  0
 59 54  1  0
 59 53  1  0
 60 46  1  0
 61 60  1  0
 62 61  2  0
 63 64  2  0
 63 62  1  0
 64 65  1  0
 65 66  1  0
 65 60  2  0
 66 67  1  0
 68 66  1  0
 69 62  1  0
 69 74  1  0
 70 69  2  0
 71 70  1  0
 71 72  2  0
 72 73  1  0
 73 74  2  0
 75 76  1  0
 75 70  1  0
M  ISO  4  40 101  42 101  43 100  51 100
M  END
>  <TORSDO>  (80) 
F 15

>  <SCORE>  (80) 
-14.972

>  <name>  (80) 
79

>  <ligand_id>  (80) 
79

>  <original_smiles>  (80) 
[H]Oc1c([H])c([H])c([H])c([H])c1-c1nnc(N([H])[H])c(N2C([H])([H])C([H])([H])N(c3nc([H])nc(N4C([H])([H])C([H])([H])C([H])(C([H])(Oc5c([H])c(-c6sc([H])nc6C([H])([H])[H])c([H])c([H])c5C([H])([H])N([H])C(=O)C5([H])N(C(=O)C([H])(N([H])C(=O)C6(F)C([H])([H])C6([H])[H])C(C([H])([H])[H])(C([H])([H])[H])C([H])([H])[H])C([H])([H])C([H])(O[H])C5([H])[H])C([H])([H])[H])C4([H])[H])n3)C([H])([H])C2([H])[H])c1[H]

>  <smiles>  (80) 
[H]Oc1c([H])c([H])c([H])c([H])c1-c1nnc(N([H])[H])c(N2C([H])([H])C([H])([H])N(c3nc([H])nc(N4C([H])([H])C([H])([H])C([H])(C([H])(Oc5c([H])c(-c6sc([H])nc6C([H])([H])[H])c([H])c([H])c5C([H])([H])N([H])C(=O)C5([H])N(C(=O)C([H])(N([H])C(=O)C6(F)C([H])([H])C6([H])[H])C(C([H])([H])[H])(C([H])([H])[H])C([H])([H])[H])C([H])([H])C([H])(O[H])C5([H])[H])C([H])([H])[H])C4([H])[H])n3)C([H])([H])C2([H])[H])c1[H]

$$$$
80:0:0
     RDKit          3D

 77 85  0  0  1  0  0  0  0  0999 V2000
  -37.3880   13.4150  -23.6750 C   0  0  0  0  0  0  0  0  0  0  0  0
  -36.6620   13.4160  -22.4710 C   0  0  0  0  0  3  0  0  0  0  0  0
  -35.3760   12.8580  -22.3820 C   0  0  0  0  0  0  0  0  0  0  0  0
  -35.4840   12.3610  -24.7730 C   0  0  0  0  0  3  0  0  0  0  0  0
  -36.7940   12.8910  -24.8640 C   0  0  0  0  0  0  0  0  0  0  0  0
  -34.7900   12.3380  -23.5510 C   0  0  0  0  0  3  0  0  0  0  0  0
  -35.1640   12.3400  -19.8650 C   0  0  0  0  0  0  0  0  0  0  0  0
  -33.0140   12.7820  -19.3160 C   0  0  0  0  0  3  0  0  0  0  0  0
  -34.6940   12.7660  -21.0930 C   0  0  0  0  0  0  0  0  0  0  0  0
  -34.1920   12.3530  -18.8630 N   0  0  0  0  0  0  0  0  0  0  0  0
  -33.0100   13.2210  -21.0130 S   0  0  0  0  0  0  0  0  0  0  0  0
  -36.5350   11.8560  -19.5070 C   0  0  0  0  0  1  0  0  0  0  0  0
  -37.5420   12.8040  -26.2030 C   0  0  0  0  0  2  0  0  0  0  0  0
  -36.1980   13.6210  -28.1070 C   0  0  0  0  0  0  0  0  0  0  0  0
  -36.4960   14.8080  -27.9500 O   0  0  0  0  0  0  0  0  0  0  0  0
  -36.6920   12.6260  -27.3640 N   0  0  0  0  0  0  0  0  0  0  0  0
  -36.4180   11.6790  -27.5840 H   0  0  0  0  0  0  0  0  0  0  0  0
  -36.1490   14.3820  -31.1210 C   0  0  0  0  0  0  0  0  0  0  0  0
  -35.1510   13.2070  -29.1480 C   0  0  0  0  0  3  0  0  0  0  0  0
  -33.6910   14.4630  -30.6040 C   0  0  0  0  0  2  0  0  0  0  0  0
  -35.0850   14.0870  -30.3290 N   0  0  0  0  0  0  0  0  0  0  0  0
  -37.2680   13.8980  -30.9150 O   0  0  0  0  0  0  0  0  0  0  0  0
  -33.7590   13.2700  -28.5030 C   0  0  0  0  0  2  0  0  0  0  0  0
  -32.8330   13.6480  -29.6380 C   0  0  0  0  0  3  0  0  0  0  0  0
  -32.3820   12.4820  -30.3090 O   0  0  0  0  0  0  0  0  0  0  0  0
  -33.1410   12.0060  -30.6310 H   0  0  0  0  0  0  0  0  0  0  0  0
  -35.9720   15.3160  -32.3470 C   0  0  0  0  0  3  0  0  0  0  0  0
  -35.7760   17.3840  -30.8180 C   0  0  0  0  0  1  0  0  0  0  0  0
  -35.9930   17.6770  -33.2740 C   0  0  0  0  0  1  0  0  0  0  0  0
  -37.9690   16.9320  -31.9310 C   0  0  0  0  0  1  0  0  0  0  0  0
  -36.4380   16.7980  -32.0880 C   0  0  1  0  0  0  0  0  0  0  0  0
  -36.7270   14.7150  -33.4590 N   0  0  0  0  0  0  0  0  0  0  0  0
  -36.2150   14.1970  -34.5860 C   0  0  0  0  0  0  0  0  0  0  0  0
  -35.0090   14.2500  -34.8400 O   0  0  0  0  0  0  0  0  0  0  0  0
  -37.7150   14.5660  -33.3030 H   0  0  0  0  0  0  0  0  0  0  0  0
  -37.2020   13.5460  -35.5170 C   0  0  1  0  0  0  0  0  0  0  0  0
  -38.4590   13.3630  -34.9600 F   0  0  0  0  0  0  0  0  0  0  0  0
  -37.1430   13.8540  -36.9950 C   0  0  0  0  0  2  0  0  0  0  0  0
  -36.7320   12.4890  -36.4930 C   0  0  0  0  0  2  0  0  0  0  0  0
  -38.6860   13.8380  -23.5210 O   0  0  0  0  0  0  0  0  0  0  0  0
  -40.9380   14.3180  -26.3220 C   0  0  0  0  0  3  0  0  0  0  0  0
  -40.4390   15.5320  -26.8220 C   0  0  0  0  0  3  0  0  0  0  0  0
  -40.3780   13.7810  -25.1550 C   0  0  0  0  0  3  0  0  0  0  0  0
  -39.4130   16.2390  -26.1440 C   0  0  0  0  0  0  0  0  0  0  0  0
  -38.9000   15.7380  -24.9300 C   0  0  0  0  0  0  0  0  0  0  0  0
  -39.3410   14.4750  -24.5080 C   0  0  0  0  0  0  0  0  0  0  0  0
  -37.8670   16.4820  -24.0920 C   0  0  0  0  0  1  0  0  0  0  0  0
  -37.4960   17.9590  -26.8130 C   0  0  0  0  0  2  0  0  0  0  0  0
  -37.4950   19.3870  -26.2580 C   0  0  0  0  0  2  0  0  0  0  0  0
  -38.9810   17.5550  -26.7300 C   0  0  0  0  0  3  0  0  0  0  0  0
  -38.9590   19.8360  -26.3920 C   0  0  0  0  0  3  0  0  0  0  0  0
  -39.6130   18.6270  -26.0420 O   0  0  0  0  0  0  0  0  0  0  0  0
  -40.2920   19.6400  -28.5050 N   0  0  0  0  0  0  0  0  0  0  0  0
  -40.0680   19.3870  -29.9320 C   0  0  0  0  0  2  0  0  0  0  0  0
  -41.3410   19.4820  -30.7650 C   0  0  0  0  0  2  0  0  0  0  0  0
  -42.3380   18.6060  -30.1870 N   0  0  0  0  0  0  0  0  0  0  0  0
  -42.7520   18.8920  -28.8220 C   0  0  0  0  0  2  0  0  0  0  0  0
  -41.6780   19.6290  -27.9790 C   0  0  0  0  0  2  0  0  0  0  0  0
  -39.3010   20.2780  -27.8340 C   0  0  0  0  0  0  0  0  0  0  0  0
  -38.5410   21.0850  -28.3800 O   0  0  0  0  0  0  0  0  0  0  0  0
  -43.2580   18.0180  -31.0800 C   0  0  0  0  0  0  0  0  0  0  0  0
  -44.5610   18.5150  -31.2870 C   0  0  0  0  0  3  0  0  0  0  0  0
  -45.4180   17.8460  -32.2030 C   0  0  0  0  0  0  0  0  0  0  0  0
  -44.9630   16.7390  -32.8600 N   0  0  0  0  0  0  0  0  0  0  0  0
  -43.7360   16.2490  -32.6680 N   0  0  0  0  0  0  0  0  0  0  0  0
  -42.9000   16.8640  -31.8090 C   0  0  0  0  0  0  0  0  0  0  0  0
  -41.6610   16.2770  -31.6280 N   0  0  0  0  0  0  0  0  0  0  0  0
  -41.2170   16.6420  -30.7950 H   0  0  0  0  0  0  0  0  0  0  0  0
  -41.6440   15.2710  -31.6970 H   0  0  0  0  0  0  0  0  0  0  0  0
  -46.8290   18.2740  -32.4920 C   0  0  0  0  0  0  0  0  0  0  0  0
  -47.7310   17.5680  -33.3580 C   0  0  0  0  0  0  0  0  0  0  0  0
  -49.0490   18.0180  -33.5640 C   0  0  0  0  0  3  0  0  0  0  0  0
  -49.5200   19.1760  -32.9280 C   0  0  0  0  0  3  0  0  0  0  0  0
  -48.6620   19.8930  -32.0840 C   0  0  0  0  0  3  0  0  0  0  0  0
  -47.3430   19.4470  -31.8770 C   0  0  0  0  0  3  0  0  0  0  0  0
  -47.3850   16.4290  -34.0300 O   0  0  0  0  0  0  0  0  0  0  0  0
  -46.4730   16.1970  -33.8570 H   0  0  0  0  0  0  0  0  0  0  0  0
  1 40  1  0
  1  2  1  0
  2  3  2  0
  3  9  1  0
  4  6  2  0
  5  4  1  0
  5  1  2  0
  6  3  1  0
  7 12  1  0
  7 10  1  0
  8 10  2  0
  9 11  1  0
  9  7  2  0
 11  8  1  0
 13  5  1  0
 14 15  2  0
 14 16  1  0
 16 13  1  0
 17 16  1  0
 18 22  2  0
 18 21  1  0
 19 23  1  0
 19 14  1  0
 20 21  1  0
 20 24  1  0
 21 19  1  0
 24 25  1  0
 24 23  1  0
 26 25  1  0
 27 31  1  0
 27 18  1  0
 31 29  1  6
 31 30  1  0
 31 28  1  0
 32 35  1  0
 32 27  1  0
 33 32  1  0
 34 33  2  0
 36 37  1  1
 36 33  1  0
 38 39  1  0
 38 36  1  0
 39 36  1  0
 41 43  1  0
 42 41  2  0
 42 44  1  0
 43 46  2  0
 44 45  2  0
 45 46  1  0
 45 47  1  0
 46 40  1  0
 48 50  1  0
 48 49  1  0
 50 44  1  0
 50 52  1  0
 51 59  1  0
 51 49  1  0
 51 52  1  0
 53 58  1  0
 53 59  1  0
 54 53  1  0
 55 56  1  0
 55 54  1  0
 56 57  1  0
 57 58  1  0
 60 59  2  0
 61 56  1  0
 62 61  1  0
 63 62  2  0
 64 65  2  0
 64 63  1  0
 65 66  1  0
 66 67  1  0
 66 61  2  0
 67 68  1  0
 69 67  1  0
 70 63  1  0
 70 75  1  0
 71 70  2  0
 72 71  1  0
 72 73  2  0
 73 74  1  0
 74 75  2  0
 76 77  1  0
 76 71  1  0
M  ISO  4  40 101  46 101  53 100  59 100
M  END
>  <TORSDO>  (81) 
F 16

>  <SCORE>  (81) 
-14.927

>  <name>  (81) 
80

>  <ligand_id>  (81) 
80

>  <original_smiles>  (81) 
[H]Oc1c([H])c([H])c([H])c([H])c1-c1nnc(N([H])[H])c(N2C([H])([H])C([H])([H])N(C(=O)C3([H])OC([H])(c4c([H])c([H])c([H])c(Oc5c([H])c(-c6sc([H])nc6C([H])([H])[H])c([H])c([H])c5C([H])([H])N([H])C(=O)C5([H])N(C(=O)C([H])(N([H])C(=O)C6(F)C([H])([H])C6([H])[H])C(C([H])([H])[H])(C([H])([H])[H])C([H])([H])[H])C([H])([H])C([H])(O[H])C5([H])[H])c4C([H])([H])[H])C([H])([H])C3([H])[H])C([H])([H])C2([H])[H])c1[H]

>  <smiles>  (81) 
[H]Oc1c([H])c([H])c([H])c([H])c1-c1nnc(N([H])[H])c(N2C([H])([H])C([H])([H])N(C(=O)C3([H])OC([H])(c4c([H])c([H])c([H])c(Oc5c([H])c(-c6sc([H])nc6C([H])([H])[H])c([H])c([H])c5C([H])([H])N([H])C(=O)C5([H])N(C(=O)C([H])(N([H])C(=O)C6(F)C([H])([H])C6([H])[H])C(C([H])([H])[H])(C([H])([H])[H])C([H])([H])[H])C([H])([H])C([H])(O[H])C5([H])[H])c4C([H])([H])[H])C([H])([H])C3([H])[H])C([H])([H])C2([H])[H])c1[H]

$$$$
81:0:0
     RDKit          3D

 71 78  0  0  1  0  0  0  0  0999 V2000
  -37.3800   13.5610  -23.7590 C   0  0  0  0  0  0  0  0  0  0  0  0
  -36.7090   13.4890  -22.5100 C   0  0  0  0  0  3  0  0  0  0  0  0
  -35.4460   12.8540  -22.3940 C   0  0  0  0  0  0  0  0  0  0  0  0
  -35.5420   12.3360  -24.7850 C   0  0  0  0  0  3  0  0  0  0  0  0
  -36.8130   12.9420  -24.8910 C   0  0  0  0  0  0  0  0  0  0  0  0
  -34.8630   12.3070  -23.5550 C   0  0  0  0  0  3  0  0  0  0  0  0
  -35.1980   12.2640  -19.8920 C   0  0  0  0  0  0  0  0  0  0  0  0
  -33.0340   12.6660  -19.3530 C   0  0  0  0  0  3  0  0  0  0  0  0
  -34.7450   12.7270  -21.1110 C   0  0  0  0  0  0  0  0  0  0  0  0
  -34.2120   12.2350  -18.9000 N   0  0  0  0  0  0  0  0  0  0  0  0
  -33.0490   13.1580  -21.0340 S   0  0  0  0  0  0  0  0  0  0  0  0
  -36.5680   11.7790  -19.5340 C   0  0  0  0  0  1  0  0  0  0  0  0
  -37.5910   12.9230  -26.2050 C   0  0  0  0  0  2  0  0  0  0  0  0
  -36.2060   13.7010  -28.0990 C   0  0  0  0  0  0  0  0  0  0  0  0
  -36.4650   14.8940  -27.9280 O   0  0  0  0  0  0  0  0  0  0  0  0
  -36.7490   12.7230  -27.3730 N   0  0  0  0  0  0  0  0  0  0  0  0
  -36.5010   11.7680  -27.6000 H   0  0  0  0  0  0  0  0  0  0  0  0
  -36.1500   14.4500  -31.1130 C   0  0  0  0  0  0  0  0  0  0  0  0
  -35.1670   13.2620  -29.1410 C   0  0  0  0  0  3  0  0  0  0  0  0
  -33.6910   14.4880  -30.6060 C   0  0  0  0  0  2  0  0  0  0  0  0
  -35.0880   14.1360  -30.3260 N   0  0  0  0  0  0  0  0  0  0  0  0
  -37.2760   13.9830  -30.9010 O   0  0  0  0  0  0  0  0  0  0  0  0
  -33.7680   13.3000  -28.5050 C   0  0  0  0  0  2  0  0  0  0  0  0
  -32.8400   13.6580  -29.6470 C   0  0  0  0  0  3  0  0  0  0  0  0
  -32.4120   12.4860  -30.3240 O   0  0  0  0  0  0  0  0  0  0  0  0
  -33.1810   12.0230  -30.6410 H   0  0  0  0  0  0  0  0  0  0  0  0
  -35.9640   15.3770  -32.3430 C   0  0  0  0  0  3  0  0  0  0  0  0
  -36.7170   14.7800  -33.4580 N   0  0  0  0  0  0  0  0  0  0  0  0
  -36.2040   14.2380  -34.5710 C   0  0  0  0  0  0  0  0  0  0  0  0
  -34.9940   14.2570  -34.8120 O   0  0  0  0  0  0  0  0  0  0  0  0
  -37.7130   14.6630  -33.3200 H   0  0  0  0  0  0  0  0  0  0  0  0
  -37.1980   13.6020  -35.5060 C   0  0  1  0  0  0  0  0  0  0  0  0
  -38.4700   13.4740  -34.9710 F   0  0  0  0  0  0  0  0  0  0  0  0
  -37.1060   13.8800  -36.9880 C   0  0  0  0  0  2  0  0  0  0  0  0
  -36.7480   12.5120  -36.4550 C   0  0  0  0  0  2  0  0  0  0  0  0
  -35.7510   17.4720  -30.8440 C   0  0  0  0  0  1  0  0  0  0  0  0
  -36.0000   17.7260  -33.3010 C   0  0  0  0  0  1  0  0  0  0  0  0
  -37.9550   16.9920  -31.9190 C   0  0  0  0  0  1  0  0  0  0  0  0
  -36.4260   16.8600  -32.0950 C   0  0  1  0  0  0  0  0  0  0  0  0
  -38.5420   14.2870  -23.9240 O   0  0  0  0  0  0  0  0  0  0  0  0
  -38.2860   15.7030  -24.0940 C   0  0  0  0  0  2  0  0  0  0  0  0
  -40.2890   19.0790  -28.1420 N   0  0  0  0  0  0  0  0  0  0  0  0
  -39.8790   19.3600  -29.5350 C   0  0  0  0  0  2  0  0  0  0  0  0
  -41.0870   19.4270  -30.5340 C   0  0  0  0  0  2  0  0  0  0  0  0
  -42.2330   18.6510  -30.0460 N   0  0  0  0  0  0  0  0  0  0  0  0
  -42.6910   18.9030  -28.6800 C   0  0  0  0  0  2  0  0  0  0  0  0
  -41.6120   19.6220  -27.8400 C   0  0  0  0  0  2  0  0  0  0  0  0
  -38.0180   17.0350  -26.2980 C   0  0  0  0  0  3  0  0  0  0  0  0
  -38.8510   16.3970  -25.3560 C   0  0  0  0  0  0  0  0  0  0  0  0
  -40.2210   16.6140  -25.5600 C   0  0  0  0  0  0  0  0  0  0  0  0
  -39.8010   18.0390  -27.3280 C   0  0  0  0  0  0  0  0  0  0  0  0
  -38.4910   17.8550  -27.2720 N   0  0  0  0  0  0  0  0  0  0  0  0
  -40.6750   17.4270  -26.5370 N   0  0  0  0  0  0  0  0  0  0  0  0
  -41.3890   15.9130  -24.5000 Cl  0  0  0  0  0  0  0  0  0  0  0  0
  -43.1170   18.0460  -30.9690 C   0  0  0  0  0  0  0  0  0  0  0  0
  -44.4200   18.5360  -31.2070 C   0  0  0  0  0  3  0  0  0  0  0  0
  -45.2640   17.8510  -32.1230 C   0  0  0  0  0  0  0  0  0  0  0  0
  -44.8020   16.7330  -32.7530 N   0  0  0  0  0  0  0  0  0  0  0  0
  -43.5790   16.2450  -32.5290 N   0  0  0  0  0  0  0  0  0  0  0  0
  -42.7530   16.8730  -31.6680 C   0  0  0  0  0  0  0  0  0  0  0  0
  -41.5270   16.2710  -31.4480 N   0  0  0  0  0  0  0  0  0  0  0  0
  -41.0930   16.6000  -30.5960 H   0  0  0  0  0  0  0  0  0  0  0  0
  -41.5020   15.2680  -31.5690 H   0  0  0  0  0  0  0  0  0  0  0  0
  -46.6700   18.2780  -32.4450 C   0  0  0  0  0  0  0  0  0  0  0  0
  -47.5650   17.5500  -33.2980 C   0  0  0  0  0  0  0  0  0  0  0  0
  -48.8780   18.0040  -33.5390 C   0  0  0  0  0  3  0  0  0  0  0  0
  -49.3480   19.1870  -32.9510 C   0  0  0  0  0  3  0  0  0  0  0  0
  -48.4950   19.9250  -32.1200 C   0  0  0  0  0  3  0  0  0  0  0  0
  -47.1830   19.4760  -31.8780 C   0  0  0  0  0  3  0  0  0  0  0  0
  -47.2200   16.3860  -33.9240 O   0  0  0  0  0  0  0  0  0  0  0  0
  -46.3120   16.1560  -33.7270 H   0  0  0  0  0  0  0  0  0  0  0  0
  1  2  1  0
  2  3  2  0
  3  9  1  0
  4  6  2  0
  5  4  1  0
  5  1  2  0
  6  3  1  0
  7 12  1  0
  7 10  1  0
  8 10  2  0
  9 11  1  0
  9  7  2  0
 11  8  1  0
 13  5  1  0
 14 15  2  0
 14 16  1  0
 16 13  1  0
 17 16  1  0
 18 22  2  0
 18 21  1  0
 19 23  1  0
 19 14  1  0
 20 21  1  0
 20 24  1  0
 21 19  1  0
 24 25  1  0
 24 23  1  0
 26 25  1  0
 27 39  1  0
 27 18  1  0
 28 31  1  0
 28 27  1  0
 29 28  1  0
 30 29  2  0
 32 33  1  1
 32 29  1  0
 34 35  1  0
 34 32  1  0
 35 32  1  0
 39 37  1  6
 39 38  1  0
 39 36  1  0
 40  1  1  0
 41 40  1  0
 42 47  1  0
 42 51  1  0
 43 42  1  0
 44 45  1  0
 44 43  1  0
 45 46  1  0
 46 47  1  0
 48 49  2  0
 49 41  1  0
 50 49  1  0
 50 54  1  0
 51 52  2  0
 51 53  1  0
 52 48  1  0
 53 50  2  0
 55 45  1  0
 56 55  1  0
 57 56  2  0
 58 59  2  0
 58 57  1  0
 59 60  1  0
 60 61  1  0
 60 55  2  0
 61 62  1  0
 63 61  1  0
 64 57  1  0
 64 69  1  0
 65 64  2  0
 66 65  1  0
 66 67  2  0
 67 68  1  0
 68 69  2  0
 70 71  1  0
 70 65  1  0
M  ISO  4  40 101  41 101  42 100  51 100
M  END
>  <TORSDO>  (82) 
F 15

>  <SCORE>  (82) 
-14.675

>  <name>  (82) 
81

>  <ligand_id>  (82) 
81

>  <original_smiles>  (82) 
[H]Oc1c([H])c([H])c([H])c([H])c1-c1nnc(N([H])[H])c(N2C([H])([H])C([H])([H])N(c3nc([H])c(C([H])([H])Oc4c([H])c(-c5sc([H])nc5C([H])([H])[H])c([H])c([H])c4C([H])([H])N([H])C(=O)C4([H])N(C(=O)C([H])(N([H])C(=O)C5(F)C([H])([H])C5([H])[H])C(C([H])([H])[H])(C([H])([H])[H])C([H])([H])[H])C([H])([H])C([H])(O[H])C4([H])[H])c(Cl)n3)C([H])([H])C2([H])[H])c1[H]

>  <smiles>  (82) 
[H]Oc1c([H])c([H])c([H])c([H])c1-c1nnc(N([H])[H])c(N2C([H])([H])C([H])([H])N(c3nc([H])c(C([H])([H])Oc4c([H])c(-c5sc([H])nc5C([H])([H])[H])c([H])c([H])c4C([H])([H])N([H])C(=O)C4([H])N(C(=O)C([H])(N([H])C(=O)C5(F)C([H])([H])C5([H])[H])C(C([H])([H])[H])(C([H])([H])[H])C([H])([H])[H])C([H])([H])C([H])(O[H])C4([H])[H])c(Cl)n3)C([H])([H])C2([H])[H])c1[H]

$$$$
82:0:0
     RDKit          3D

 72 79  0  0  1  0  0  0  0  0999 V2000
  -37.4270   13.5680  -23.7390 C   0  0  0  0  0  0  0  0  0  0  0  0
  -36.7680   13.4610  -22.4850 C   0  0  0  0  0  3  0  0  0  0  0  0
  -35.4840   12.8760  -22.3740 C   0  0  0  0  0  0  0  0  0  0  0  0
  -35.5600   12.3840  -24.7700 C   0  0  0  0  0  3  0  0  0  0  0  0
  -36.8440   12.9660  -24.8750 C   0  0  0  0  0  0  0  0  0  0  0  0
  -34.8800   12.3630  -23.5400 C   0  0  0  0  0  3  0  0  0  0  0  0
  -35.2320   12.3070  -19.8680 C   0  0  0  0  0  0  0  0  0  0  0  0
  -33.0780   12.7550  -19.3250 C   0  0  0  0  0  3  0  0  0  0  0  0
  -34.7830   12.7690  -21.0890 C   0  0  0  0  0  0  0  0  0  0  0  0
  -34.2500   12.3050  -18.8740 N   0  0  0  0  0  0  0  0  0  0  0  0
  -33.0970   13.2370  -21.0090 S   0  0  0  0  0  0  0  0  0  0  0  0
  -36.5940   11.8010  -19.5110 C   0  0  0  0  0  1  0  0  0  0  0  0
  -37.6180   12.9360  -26.1900 C   0  0  0  0  0  2  0  0  0  0  0  0
  -36.2190   13.6960  -28.0790 C   0  0  0  0  0  0  0  0  0  0  0  0
  -36.4700   14.8910  -27.9100 O   0  0  0  0  0  0  0  0  0  0  0  0
  -36.7740   12.7220  -27.3550 N   0  0  0  0  0  0  0  0  0  0  0  0
  -36.5340   11.7660  -27.5780 H   0  0  0  0  0  0  0  0  0  0  0  0
  -36.1500   14.4370  -31.0930 C   0  0  0  0  0  0  0  0  0  0  0  0
  -35.1750   13.2530  -29.1140 C   0  0  0  0  0  3  0  0  0  0  0  0
  -33.6940   14.4810  -30.5730 C   0  0  0  0  0  2  0  0  0  0  0  0
  -35.0920   14.1270  -30.2990 N   0  0  0  0  0  0  0  0  0  0  0  0
  -37.2770   13.9690  -30.8870 O   0  0  0  0  0  0  0  0  0  0  0  0
  -33.7790   13.2930  -28.4710 C   0  0  0  0  0  2  0  0  0  0  0  0
  -32.8460   13.6530  -29.6090 C   0  0  0  0  0  3  0  0  0  0  0  0
  -32.4130   12.4830  -30.2830 O   0  0  0  0  0  0  0  0  0  0  0  0
  -33.1800   12.0180  -30.6040 H   0  0  0  0  0  0  0  0  0  0  0  0
  -35.9600   15.3660  -32.3210 C   0  0  0  0  0  3  0  0  0  0  0  0
  -36.7220   14.7760  -33.4350 N   0  0  0  0  0  0  0  0  0  0  0  0
  -36.2150   14.2230  -34.5450 C   0  0  0  0  0  0  0  0  0  0  0  0
  -35.0040   14.2240  -34.7860 O   0  0  0  0  0  0  0  0  0  0  0  0
  -37.7180   14.6740  -33.2970 H   0  0  0  0  0  0  0  0  0  0  0  0
  -37.2170   13.5990  -35.4790 C   0  0  1  0  0  0  0  0  0  0  0  0
  -38.4910   13.4880  -34.9430 F   0  0  0  0  0  0  0  0  0  0  0  0
  -37.1210   13.8720  -36.9620 C   0  0  0  0  0  2  0  0  0  0  0  0
  -36.7820   12.4990  -36.4250 C   0  0  0  0  0  2  0  0  0  0  0  0
  -35.7030   17.4690  -30.8390 C   0  0  0  0  0  1  0  0  0  0  0  0
  -36.0090   17.7080  -33.2920 C   0  0  0  0  0  1  0  0  0  0  0  0
  -37.9320   16.9910  -31.8590 C   0  0  0  0  0  1  0  0  0  0  0  0
  -36.4100   16.8520  -32.0710 C   0  0  1  0  0  0  0  0  0  0  0  0
  -38.6120   14.2670  -23.8850 O   0  0  0  0  0  0  0  0  0  0  0  0
  -37.2040   16.3330  -23.4110 C   0  0  0  0  0  1  0  0  0  0  0  0
  -39.5930   16.1390  -22.8610 C   0  0  0  0  0  1  0  0  0  0  0  0
  -38.5480   15.7340  -23.9220 C   0  0  2  0  0  0  0  0  0  0  0  0
  -40.3560   19.0830  -28.1520 N   0  0  0  0  0  0  0  0  0  0  0  0
  -39.9500   19.3460  -29.5450 C   0  0  0  0  0  2  0  0  0  0  0  0
  -41.1640   19.4220  -30.5330 C   0  0  0  0  0  2  0  0  0  0  0  0
  -42.2990   18.6230  -30.0550 N   0  0  0  0  0  0  0  0  0  0  0  0
  -42.7630   18.8370  -28.6850 C   0  0  0  0  0  2  0  0  0  0  0  0
  -41.7000   19.5480  -27.8160 C   0  0  0  0  0  2  0  0  0  0  0  0
  -37.9680   17.0500  -26.1280 C   0  0  0  0  0  3  0  0  0  0  0  0
  -38.4230   17.8830  -27.1810 C   0  0  0  0  0  3  0  0  0  0  0  0
  -38.9190   16.3920  -25.3010 C   0  0  0  0  0  0  0  0  0  0  0  0
  -39.8120   18.0410  -27.3500 C   0  0  0  0  0  0  0  0  0  0  0  0
  -40.2380   16.4660  -25.6260 N   0  0  0  0  0  0  0  0  0  0  0  0
  -40.6680   17.2840  -26.6040 N   0  0  0  0  0  0  0  0  0  0  0  0
  -43.1700   18.0150  -30.9870 C   0  0  0  0  0  0  0  0  0  0  0  0
  -44.4810   18.4840  -31.2180 C   0  0  0  0  0  3  0  0  0  0  0  0
  -45.3110   17.8000  -32.1460 C   0  0  0  0  0  0  0  0  0  0  0  0
  -44.8280   16.7020  -32.7930 N   0  0  0  0  0  0  0  0  0  0  0  0
  -43.5960   16.2320  -32.5770 N   0  0  0  0  0  0  0  0  0  0  0  0
  -42.7830   16.8610  -31.7050 C   0  0  0  0  0  0  0  0  0  0  0  0
  -41.5450   16.2800  -31.4930 N   0  0  0  0  0  0  0  0  0  0  0  0
  -41.1220   16.6070  -30.6340 H   0  0  0  0  0  0  0  0  0  0  0  0
  -41.5040   15.2800  -31.6220 H   0  0  0  0  0  0  0  0  0  0  0  0
  -46.7250   18.2050  -32.4620 C   0  0  0  0  0  0  0  0  0  0  0  0
  -47.6070   17.4750  -33.3260 C   0  0  0  0  0  0  0  0  0  0  0  0
  -48.9280   17.9080  -33.5590 C   0  0  0  0  0  3  0  0  0  0  0  0
  -49.4190   19.0730  -32.9530 C   0  0  0  0  0  3  0  0  0  0  0  0
  -48.5790   19.8140  -32.1110 C   0  0  0  0  0  3  0  0  0  0  0  0
  -47.2600   19.3850  -31.8770 C   0  0  0  0  0  3  0  0  0  0  0  0
  -47.2410   16.3260  -33.9700 O   0  0  0  0  0  0  0  0  0  0  0  0
  -46.3280   16.1110  -33.7750 H   0  0  0  0  0  0  0  0  0  0  0  0
  1  2  1  0
  2  3  2  0
  3  9  1  0
  4  6  2  0
  5  4  1  0
  5  1  2  0
  6  3  1  0
  7 12  1  0
  7 10  1  0
  8 10  2  0
  9 11  1  0
  9  7  2  0
 11  8  1  0
 13  5  1  0
 14 15  2  0
 14 16  1  0
 16 13  1  0
 17 16  1  0
 18 22  2  0
 18 21  1  0
 19 23  1  0
 19 14  1  0
 20 21  1  0
 20 24  1  0
 21 19  1  0
 24 25  1  0
 24 23  1  0
 26 25  1  0
 27 39  1  0
 27 18  1  0
 28 31  1  0
 28 27  1  0
 29 28  1  0
 30 29  2  0
 32 33  1  1
 32 29  1  0
 34 35  1  0
 34 32  1  0
 35 32  1  0
 39 37  1  6
 39 38  1  0
 39 36  1  0
 40  1  1  0
 43 40  1  0
 43 41  1  1
 43 42  1  0
 44 49  1  0
 44 53  1  0
 45 44  1  0
 46 47  1  0
 46 45  1  0
 47 48  1  0
 48 49  1  0
 50 52  1  0
 51 50  2  0
 52 43  1  0
 53 51  1  0
 53 55  2  0
 54 52  2  0
 55 54  1  0
 56 47  1  0
 57 56  1  0
 58 57  2  0
 59 60  2  0
 59 58  1  0
 60 61  1  0
 61 62  1  0
 61 56  2  0
 62 63  1  0
 64 62  1  0
 65 58  1  0
 65 70  1  0
 66 65  2  0
 67 66  1  0
 67 68  2  0
 68 69  1  0
 69 70  2  0
 71 72  1  0
 71 66  1  0
M  ISO  4  40 101  43 101  44 100  53 100
M  END
>  <TORSDO>  (83) 
F 15

>  <SCORE>  (83) 
-14.700

>  <name>  (83) 
82

>  <ligand_id>  (83) 
82

>  <original_smiles>  (83) 
[H]Oc1c([H])c([H])c([H])c([H])c1-c1nnc(N([H])[H])c(N2C([H])([H])C([H])([H])N(c3nnc(C(Oc4c([H])c(-c5sc([H])nc5C([H])([H])[H])c([H])c([H])c4C([H])([H])N([H])C(=O)C4([H])N(C(=O)C([H])(N([H])C(=O)C5(F)C([H])([H])C5([H])[H])C(C([H])([H])[H])(C([H])([H])[H])C([H])([H])[H])C([H])([H])C([H])(O[H])C4([H])[H])(C([H])([H])[H])C([H])([H])[H])c([H])c3[H])C([H])([H])C2([H])[H])c1[H]

>  <smiles>  (83) 
[H]Oc1c([H])c([H])c([H])c([H])c1-c1nnc(N([H])[H])c(N2C([H])([H])C([H])([H])N(c3nnc(C(Oc4c([H])c(-c5sc([H])nc5C([H])([H])[H])c([H])c([H])c4C([H])([H])N([H])C(=O)C4([H])N(C(=O)C([H])(N([H])C(=O)C5(F)C([H])([H])C5([H])[H])C(C([H])([H])[H])(C([H])([H])[H])C([H])([H])[H])C([H])([H])C([H])(O[H])C4([H])[H])(C([H])([H])[H])C([H])([H])[H])c([H])c3[H])C([H])([H])C2([H])[H])c1[H]

$$$$
83:0:0
     RDKit          3D

 73 80  0  0  1  0  0  0  0  0999 V2000
  -37.4130   13.6010  -23.7580 C   0  0  0  0  0  0  0  0  0  0  0  0
  -36.7330   13.5290  -22.5090 C   0  0  0  0  0  3  0  0  0  0  0  0
  -35.4580   12.9140  -22.3830 C   0  0  0  0  0  0  0  0  0  0  0  0
  -35.5350   12.3990  -24.7700 C   0  0  0  0  0  3  0  0  0  0  0  0
  -36.8170   12.9830  -24.8880 C   0  0  0  0  0  0  0  0  0  0  0  0
  -34.8600   12.3760  -23.5390 C   0  0  0  0  0  3  0  0  0  0  0  0
  -35.2060   12.3170  -19.8780 C   0  0  0  0  0  0  0  0  0  0  0  0
  -33.0470   12.7400  -19.3340 C   0  0  0  0  0  3  0  0  0  0  0  0
  -34.7570   12.7880  -21.0960 C   0  0  0  0  0  0  0  0  0  0  0  0
  -34.2220   12.2980  -18.8840 N   0  0  0  0  0  0  0  0  0  0  0  0
  -33.0630   13.2310  -21.0150 S   0  0  0  0  0  0  0  0  0  0  0  0
  -36.5710   11.8150  -19.5230 C   0  0  0  0  0  1  0  0  0  0  0  0
  -37.5730   12.8760  -26.2130 C   0  0  0  0  0  2  0  0  0  0  0  0
  -36.1870   13.6900  -28.0960 C   0  0  0  0  0  0  0  0  0  0  0  0
  -36.4700   14.8820  -27.9370 O   0  0  0  0  0  0  0  0  0  0  0  0
  -36.7090   12.7010  -27.3670 N   0  0  0  0  0  0  0  0  0  0  0  0
  -36.4350   11.7540  -27.5890 H   0  0  0  0  0  0  0  0  0  0  0  0
  -36.1140   14.4180  -31.1160 C   0  0  0  0  0  0  0  0  0  0  0  0
  -35.1350   13.2540  -29.1280 C   0  0  0  0  0  3  0  0  0  0  0  0
  -33.6580   14.4750  -30.5930 C   0  0  0  0  0  2  0  0  0  0  0  0
  -35.0550   14.1190  -30.3180 N   0  0  0  0  0  0  0  0  0  0  0  0
  -37.2380   13.9470  -30.9070 O   0  0  0  0  0  0  0  0  0  0  0  0
  -33.7410   13.3040  -28.4830 C   0  0  0  0  0  2  0  0  0  0  0  0
  -32.8090   13.6570  -29.6220 C   0  0  0  0  0  3  0  0  0  0  0  0
  -32.3720   12.4820  -30.2870 O   0  0  0  0  0  0  0  0  0  0  0  0
  -33.1370   12.0130  -30.6050 H   0  0  0  0  0  0  0  0  0  0  0  0
  -35.9250   15.3390  -32.3500 C   0  0  0  0  0  3  0  0  0  0  0  0
  -36.6970   14.7490  -33.4560 N   0  0  0  0  0  0  0  0  0  0  0  0
  -36.2000   14.2020  -34.5740 C   0  0  0  0  0  0  0  0  0  0  0  0
  -34.9920   14.2100  -34.8260 O   0  0  0  0  0  0  0  0  0  0  0  0
  -37.6920   14.6420  -33.3080 H   0  0  0  0  0  0  0  0  0  0  0  0
  -37.2090   13.5760  -35.4990 C   0  0  1  0  0  0  0  0  0  0  0  0
  -38.4750   13.4550  -34.9470 F   0  0  0  0  0  0  0  0  0  0  0  0
  -37.1320   13.8580  -36.9810 C   0  0  0  0  0  2  0  0  0  0  0  0
  -36.7780   12.4850  -36.4550 C   0  0  0  0  0  2  0  0  0  0  0  0
  -35.6440   17.4390  -30.8770 C   0  0  0  0  0  1  0  0  0  0  0  0
  -35.9560   17.6810  -33.3250 C   0  0  0  0  0  1  0  0  0  0  0  0
  -37.8870   16.9780  -31.8930 C   0  0  0  0  0  1  0  0  0  0  0  0
  -36.3630   16.8290  -32.1030 C   0  0  1  0  0  0  0  0  0  0  0  0
  -38.6650   14.2030  -23.8530 O   0  0  0  0  0  0  0  0  0  0  0  0
  -38.2130   17.5210  -25.5060 C   0  0  0  0  0  3  0  0  0  0  0  0
  -37.9800   16.4690  -24.5850 C   0  0  0  0  0  3  0  0  0  0  0  0
  -39.2930   17.4120  -26.4180 C   0  0  0  0  0  3  0  0  0  0  0  0
  -38.8510   15.3590  -24.6140 C   0  0  0  0  0  0  0  0  0  0  0  0
  -40.1280   16.3380  -26.3630 N   0  0  0  0  0  2  0  0  0  0  0  0
  -39.9370   15.3620  -25.4460 N   0  0  0  0  0  0  0  0  0  0  0  0
  -40.2370   18.9960  -28.2520 N   0  0  0  0  0  0  0  0  0  0  0  0
  -40.0470   19.6620  -29.5750 C   0  0  0  0  0  2  0  0  0  0  0  0
  -41.2680   19.5250  -30.5280 C   0  0  0  0  0  2  0  0  0  0  0  0
  -42.2720   18.5970  -30.0130 N   0  0  0  0  0  0  0  0  0  0  0  0
  -42.7200   18.8100  -28.6350 C   0  0  0  0  0  2  0  0  0  0  0  0
  -41.5750   19.2620  -27.6780 C   0  0  0  0  0  2  0  0  0  0  0  0
  -39.2600   18.1920  -27.6960 C   0  0  0  0  0  3  0  0  0  0  0  0
  -38.0890   18.0680  -28.3480 N   0  0  0  0  0  0  0  0  0  0  0  0
  -37.4140   17.3960  -28.0090 H   0  0  0  0  0  0  0  0  0  0  0  0
  -37.8550   18.6420  -29.1390 H   0  0  0  0  0  0  0  0  0  0  0  0
  -43.1490   17.9950  -30.9520 C   0  0  0  0  0  0  0  0  0  0  0  0
  -44.4670   18.4470  -31.1860 C   0  0  0  0  0  3  0  0  0  0  0  0
  -45.2800   17.7610  -32.1330 C   0  0  0  0  0  0  0  0  0  0  0  0
  -44.7720   16.6830  -32.7970 N   0  0  0  0  0  0  0  0  0  0  0  0
  -43.5340   16.2340  -32.5810 N   0  0  0  0  0  0  0  0  0  0  0  0
  -42.7390   16.8630  -31.6920 C   0  0  0  0  0  0  0  0  0  0  0  0
  -41.4870   16.3070  -31.4940 N   0  0  0  0  0  0  0  0  0  0  0  0
  -41.0690   16.6070  -30.6250 H   0  0  0  0  0  0  0  0  0  0  0  0
  -41.4140   15.3150  -31.6690 H   0  0  0  0  0  0  0  0  0  0  0  0
  -46.7010   18.1400  -32.4560 C   0  0  0  0  0  0  0  0  0  0  0  0
  -47.5660   17.3950  -33.3240 C   0  0  0  0  0  0  0  0  0  0  0  0
  -48.8950   17.8030  -33.5620 C   0  0  0  0  0  3  0  0  0  0  0  0
  -49.4100   18.9560  -32.9540 C   0  0  0  0  0  3  0  0  0  0  0  0
  -48.5860   19.7110  -32.1080 C   0  0  0  0  0  3  0  0  0  0  0  0
  -47.2590   19.3070  -31.8700 C   0  0  0  0  0  3  0  0  0  0  0  0
  -47.1760   16.2560  -33.9720 O   0  0  0  0  0  0  0  0  0  0  0  0
  -46.2600   16.0570  -33.7770 H   0  0  0  0  0  0  0  0  0  0  0  0
  1  2  1  0
  2  3  2  0
  3  9  1  0
  4  6  2  0
  5  4  1  0
  5  1  2  0
  6  3  1  0
  7 12  1  0
  7 10  1  0
  8 10  2  0
  9 11  1  0
  9  7  2  0
 11  8  1  0
 13  5  1  0
 14 15  2  0
 14 16  1  0
 16 13  1  0
 17 16  1  0
 18 22  2  0
 18 21  1  0
 19 23  1  0
 19 14  1  0
 20 21  1  0
 20 24  1  0
 21 19  1  0
 24 25  1  0
 24 23  1  0
 26 25  1  0
 27 39  1  0
 27 18  1  0
 28 31  1  0
 28 27  1  0
 29 28  1  0
 30 29  2  0
 32 33  1  1
 32 29  1  0
 34 35  1  0
 34 32  1  0
 35 32  1  0
 39 37  1  6
 39 38  1  0
 39 36  1  0
 40  1  1  0
 41 42  2  0
 43 53  1  0
 43 45  1  0
 43 41  1  0
 44 42  1  0
 44 40  1  0
 45 46  1  0
 46 44  2  0
 47 53  1  0
 47 52  1  0
 48 47  1  0
 49 50  1  0
 49 48  1  0
 50 51  1  0
 51 52  1  0
 53 54  1  0
 54 55  1  0
 56 54  1  0
 57 50  1  0
 58 57  1  0
 59 58  2  0
 60 61  2  0
 60 59  1  0
 61 62  1  0
 62 63  1  0
 62 57  2  0
 63 64  1  0
 65 63  1  0
 66 59  1  0
 66 71  1  0
 67 66  2  0
 68 67  1  0
 68 69  2  0
 69 70  1  0
 70 71  2  0
 72 73  1  0
 72 67  1  0
M  ISO  4  40 101  44 101  47 100  53 100
M  END
>  <TORSDO>  (84) 
F 15

>  <SCORE>  (84) 
-14.736

>  <name>  (84) 
83

>  <ligand_id>  (84) 
83

>  <original_smiles>  (84) 
[H]Oc1c([H])c([H])c([H])c([H])c1-c1nnc(N([H])[H])c(N2C([H])([H])C([H])([H])N(C(c3nnc(Oc4c([H])c(-c5sc([H])nc5C([H])([H])[H])c([H])c([H])c4C([H])([H])N([H])C(=O)C4([H])N(C(=O)C([H])(N([H])C(=O)C5(F)C([H])([H])C5([H])[H])C(C([H])([H])[H])(C([H])([H])[H])C([H])([H])[H])C([H])([H])C([H])(O[H])C4([H])[H])c([H])c3[H])=[N+]([H])[H])C([H])([H])C2([H])[H])c1[H]

>  <smiles>  (84) 
[H]Oc1c([H])c([H])c([H])c([H])c1-c1nnc(N([H])[H])c(N2C([H])([H])C([H])([H])N(C(c3nnc(Oc4c([H])c(-c5sc([H])nc5C([H])([H])[H])c([H])c([H])c4C([H])([H])N([H])C(=O)C4([H])N(C(=O)C([H])(N([H])C(=O)C5(F)C([H])([H])C5([H])[H])C(C([H])([H])[H])(C([H])([H])[H])C([H])([H])[H])C([H])([H])C([H])(O[H])C4([H])[H])c([H])c3[H])=[N+]([H])[H])C([H])([H])C2([H])[H])c1[H]

$$$$
84:0:0
     RDKit          3D

 76 84  0  0  1  0  0  0  0  0999 V2000
  -37.3020   13.4870  -23.7070 C   0  0  0  0  0  0  0  0  0  0  0  0
  -36.6050   13.4270  -22.4790 C   0  0  0  0  0  3  0  0  0  0  0  0
  -35.3390   12.8210  -22.3850 C   0  0  0  0  0  0  0  0  0  0  0  0
  -35.4580   12.3080  -24.7740 C   0  0  0  0  0  3  0  0  0  0  0  0
  -36.7390   12.9000  -24.8640 C   0  0  0  0  0  0  0  0  0  0  0  0
  -34.7610   12.2830  -23.5510 C   0  0  0  0  0  3  0  0  0  0  0  0
  -35.1190   12.2560  -19.8810 C   0  0  0  0  0  0  0  0  0  0  0  0
  -32.9700   12.7070  -19.3210 C   0  0  0  0  0  3  0  0  0  0  0  0
  -34.6530   12.7150  -21.0970 C   0  0  0  0  0  0  0  0  0  0  0  0
  -34.1440   12.2550  -18.8810 N   0  0  0  0  0  0  0  0  0  0  0  0
  -32.9730   13.1940  -21.0050 S   0  0  0  0  0  0  0  0  0  0  0  0
  -36.4870   11.7460  -19.5340 C   0  0  0  0  0  1  0  0  0  0  0  0
  -37.5220   12.8840  -26.1780 C   0  0  0  0  0  2  0  0  0  0  0  0
  -36.1690   13.6540  -28.1140 C   0  0  0  0  0  0  0  0  0  0  0  0
  -36.4590   14.8450  -27.9750 O   0  0  0  0  0  0  0  0  0  0  0  0
  -36.6840   12.6830  -27.3570 N   0  0  0  0  0  0  0  0  0  0  0  0
  -36.4200   11.7290  -27.5630 H   0  0  0  0  0  0  0  0  0  0  0  0
  -36.1010   14.3630  -31.1480 C   0  0  0  0  0  0  0  0  0  0  0  0
  -35.1160   13.2180  -29.1490 C   0  0  0  0  0  3  0  0  0  0  0  0
  -33.6480   14.4460  -30.6260 C   0  0  0  0  0  2  0  0  0  0  0  0
  -35.0420   14.0780  -30.3460 N   0  0  0  0  0  0  0  0  0  0  0  0
  -37.2190   13.8740  -30.9420 O   0  0  0  0  0  0  0  0  0  0  0  0
  -33.7180   13.2840  -28.5090 C   0  0  0  0  0  2  0  0  0  0  0  0
  -32.7870   13.6460  -29.6490 C   0  0  0  0  0  3  0  0  0  0  0  0
  -32.3230   12.4810  -30.3140 O   0  0  0  0  0  0  0  0  0  0  0  0
  -33.0780   12.0040  -30.6450 H   0  0  0  0  0  0  0  0  0  0  0  0
  -35.9270   15.2830  -32.3840 C   0  0  0  0  0  3  0  0  0  0  0  0
  -35.7740   17.3670  -30.8650 C   0  0  0  0  0  1  0  0  0  0  0  0
  -35.9100   17.6360  -33.3310 C   0  0  0  0  0  1  0  0  0  0  0  0
  -37.9320   16.9050  -32.0410 C   0  0  0  0  0  1  0  0  0  0  0  0
  -36.3960   16.7680  -32.1500 C   0  0  1  0  0  0  0  0  0  0  0  0
  -36.6770   14.6680  -33.4920 N   0  0  0  0  0  0  0  0  0  0  0  0
  -36.1640   14.1680  -34.6260 C   0  0  0  0  0  0  0  0  0  0  0  0
  -34.9610   14.2460  -34.8920 O   0  0  0  0  0  0  0  0  0  0  0  0
  -37.6640   14.5080  -33.3330 H   0  0  0  0  0  0  0  0  0  0  0  0
  -37.1540   13.5040  -35.5490 C   0  0  1  0  0  0  0  0  0  0  0  0
  -38.4020   13.3010  -34.9830 F   0  0  0  0  0  0  0  0  0  0  0  0
  -37.1160   13.8200  -37.0270 C   0  0  0  0  0  2  0  0  0  0  0  0
  -36.6780   12.4600  -36.5360 C   0  0  0  0  0  2  0  0  0  0  0  0
  -38.5270   14.1090  -23.7680 O   0  0  0  0  0  0  0  0  0  0  0  0
  -37.9110   16.2000  -24.6840 C   0  0  0  0  0  2  0  0  0  0  0  0
  -39.8570   16.0500  -23.0220 C   0  0  0  0  0  2  0  0  0  0  0  0
  -37.8670   17.7010  -24.4630 C   0  0  0  0  0  2  0  0  0  0  0  0
  -39.8240   17.5900  -22.8570 C   0  0  0  0  0  2  0  0  0  0  0  0
  -38.4710   15.4980  -23.4380 C   0  0  0  0  0  3  0  0  0  0  0  0
  -39.2870   18.2230  -24.1450 C   0  0  0  0  0  3  0  0  0  0  0  0
  -39.2470   19.6580  -24.0980 O   0  0  0  0  0  0  0  0  0  0  0  0
  -40.1760   19.3450  -28.5780 N   0  0  0  0  0  0  0  0  0  0  0  0
  -39.8640   19.4430  -30.0140 C   0  0  0  0  0  2  0  0  0  0  0  0
  -41.1160   19.3970  -30.9370 C   0  0  0  0  0  2  0  0  0  0  0  0
  -42.1910   18.5810  -30.3760 N   0  0  0  0  0  0  0  0  0  0  0  0
  -42.6130   18.8300  -29.0090 C   0  0  0  0  0  2  0  0  0  0  0  0
  -41.5750   19.6040  -28.2000 C   0  0  0  0  0  2  0  0  0  0  0  0
  -38.0300   21.8780  -26.7880 C   0  0  0  0  0  3  0  0  0  0  0  0
  -38.5580   21.1660  -27.8900 C   0  0  0  0  0  3  0  0  0  0  0  0
  -38.3170   21.4440  -25.4770 C   0  0  0  0  0  3  0  0  0  0  0  0
  -39.3890   20.0510  -27.6400 C   0  0  0  0  0  0  0  0  0  0  0  0
  -39.0730   20.2750  -25.3250 C   0  0  0  0  0  0  0  0  0  0  0  0
  -39.5930   19.6390  -26.3860 N   0  0  0  0  0  0  0  0  0  0  0  0
  -43.1520   18.0250  -31.2480 C   0  0  0  0  0  0  0  0  0  0  0  0
  -44.4540   18.5490  -31.3950 C   0  0  0  0  0  3  0  0  0  0  0  0
  -45.3700   17.8890  -32.2600 C   0  0  0  0  0  0  0  0  0  0  0  0
  -44.9690   16.7720  -32.9320 N   0  0  0  0  0  0  0  0  0  0  0  0
  -43.7440   16.2560  -32.7950 N   0  0  0  0  0  0  0  0  0  0  0  0
  -42.8540   16.8570  -31.9810 C   0  0  0  0  0  0  0  0  0  0  0  0
  -41.6230   16.2420  -31.8480 N   0  0  0  0  0  0  0  0  0  0  0  0
  -41.1250   16.5720  -31.0300 H   0  0  0  0  0  0  0  0  0  0  0  0
  -41.6010   15.2400  -31.9840 H   0  0  0  0  0  0  0  0  0  0  0  0
  -46.7880   18.3400  -32.4840 C   0  0  0  0  0  0  0  0  0  0  0  0
  -47.7230   17.6800  -33.3500 C   0  0  0  0  0  0  0  0  0  0  0  0
  -49.0420   18.1520  -33.5000 C   0  0  0  0  0  3  0  0  0  0  0  0
  -49.4850   19.2860  -32.8060 C   0  0  0  0  0  3  0  0  0  0  0  0
  -48.5930   19.9580  -31.9590 C   0  0  0  0  0  3  0  0  0  0  0  0
  -47.2740   19.4910  -31.8080 C   0  0  0  0  0  3  0  0  0  0  0  0
  -47.4120   16.5660  -34.0780 O   0  0  0  0  0  0  0  0  0  0  0  0
  -46.4970   16.3190  -33.9360 H   0  0  0  0  0  0  0  0  0  0  0  0
  1  2  1  0
  2  3  2  0
  3  9  1  0
  4  6  2  0
  5  4  1  0
  5  1  2  0
  6  3  1  0
  7 12  1  0
  7 10  1  0
  8 10  2  0
  9 11  1  0
  9  7  2  0
 11  8  1  0
 13  5  1  0
 14 15  2  0
 14 16  1  0
 16 13  1  0
 17 16  1  0
 18 22  2  0
 18 21  1  0
 19 23  1  0
 19 14  1  0
 20 21  1  0
 20 24  1  0
 21 19  1  0
 24 25  1  0
 24 23  1  0
 26 25  1  0
 27 31  1  0
 27 18  1  0
 31 29  1  6
 31 30  1  0
 31 28  1  0
 32 35  1  0
 32 27  1  0
 33 32  1  0
 34 33  2  0
 36 37  1  1
 36 33  1  0
 38 39  1  0
 38 36  1  0
 39 36  1  0
 40  1  1  0
 41 43  1  0
 41 45  1  0
 42 44  1  0
 43 46  1  0
 45 40  1  0
 45 42  1  0
 46 47  1  0
 46 44  1  0
 48 53  1  0
 48 57  1  0
 49 48  1  0
 50 51  1  0
 50 49  1  0
 51 52  1  0
 52 53  1  0
 54 56  2  0
 55 57  2  0
 55 54  1  0
 56 58  1  0
 57 59  1  0
 58 47  1  0
 59 58  2  0
 60 51  1  0
 61 60  1  0
 62 61  2  0
 63 64  2  0
 63 62  1  0
 64 65  1  0
 65 66  1  0
 65 60  2  0
 66 67  1  0
 68 66  1  0
 69 62  1  0
 69 74  1  0
 70 69  2  0
 71 70  1  0
 71 72  2  0
 72 73  1  0
 73 74  2  0
 75 76  1  0
 75 70  1  0
M  ISO  4  40 101  45 101  48 100  57 100
M  END
>  <TORSDO>  (85) 
F 16

>  <SCORE>  (85) 
-14.612

>  <name>  (85) 
84

>  <ligand_id>  (85) 
84

>  <original_smiles>  (85) 
[H]Oc1c([H])c([H])c([H])c([H])c1-c1nnc(N([H])[H])c(N2C([H])([H])C([H])([H])N(c3nc(OC4([H])C([H])([H])C([H])([H])C([H])(Oc5c([H])c(-c6sc([H])nc6C([H])([H])[H])c([H])c([H])c5C([H])([H])N([H])C(=O)C5([H])N(C(=O)C([H])(N([H])C(=O)C6(F)C([H])([H])C6([H])[H])C(C([H])([H])[H])(C([H])([H])[H])C([H])([H])[H])C([H])([H])C([H])(O[H])C5([H])[H])C([H])([H])C4([H])[H])c([H])c([H])c3[H])C([H])([H])C2([H])[H])c1[H]

>  <smiles>  (85) 
[H]Oc1c([H])c([H])c([H])c([H])c1-c1nnc(N([H])[H])c(N2C([H])([H])C([H])([H])N(c3nc(OC4([H])C([H])([H])C([H])([H])C([H])(Oc5c([H])c(-c6sc([H])nc6C([H])([H])[H])c([H])c([H])c5C([H])([H])N([H])C(=O)C5([H])N(C(=O)C([H])(N([H])C(=O)C6(F)C([H])([H])C6([H])[H])C(C([H])([H])[H])(C([H])([H])[H])C([H])([H])[H])C([H])([H])C([H])(O[H])C5([H])[H])C([H])([H])C4([H])[H])c([H])c([H])c3[H])C([H])([H])C2([H])[H])c1[H]

$$$$
85:0:0
     RDKit          3D

 71 78  0  0  1  0  0  0  0  0999 V2000
  -37.4110   13.6540  -23.7980 C   0  0  0  0  0  0  0  0  0  0  0  0
  -36.7350   13.5800  -22.5440 C   0  0  0  0  0  3  0  0  0  0  0  0
  -35.4730   12.9410  -22.4030 C   0  0  0  0  0  0  0  0  0  0  0  0
  -35.5580   12.3840  -24.7800 C   0  0  0  0  0  3  0  0  0  0  0  0
  -36.8280   12.9900  -24.9110 C   0  0  0  0  0  0  0  0  0  0  0  0
  -34.8840   12.3720  -23.5500 C   0  0  0  0  0  3  0  0  0  0  0  0
  -35.2230   12.3610  -19.8910 C   0  0  0  0  0  0  0  0  0  0  0  0
  -33.0600   12.7730  -19.3510 C   0  0  0  0  0  3  0  0  0  0  0  0
  -34.7730   12.8210  -21.1140 C   0  0  0  0  0  0  0  0  0  0  0  0
  -34.2380   12.3430  -18.8990 N   0  0  0  0  0  0  0  0  0  0  0  0
  -33.0740   13.2500  -21.0380 S   0  0  0  0  0  0  0  0  0  0  0  0
  -36.5900   11.8710  -19.5320 C   0  0  0  0  0  1  0  0  0  0  0  0
  -37.5880   12.8590  -26.2320 C   0  0  0  0  0  2  0  0  0  0  0  0
  -36.2130   13.6830  -28.1170 C   0  0  0  0  0  0  0  0  0  0  0  0
  -36.5090   14.8710  -27.9570 O   0  0  0  0  0  0  0  0  0  0  0  0
  -36.7250   12.6910  -27.3880 N   0  0  0  0  0  0  0  0  0  0  0  0
  -36.4430   11.7460  -27.6100 H   0  0  0  0  0  0  0  0  0  0  0  0
  -36.1430   14.4280  -31.1340 C   0  0  0  0  0  0  0  0  0  0  0  0
  -35.1590   13.2590  -29.1520 C   0  0  0  0  0  3  0  0  0  0  0  0
  -33.6870   14.4910  -30.6140 C   0  0  0  0  0  2  0  0  0  0  0  0
  -35.0840   14.1290  -30.3380 N   0  0  0  0  0  0  0  0  0  0  0  0
  -37.2660   13.9530  -30.9260 O   0  0  0  0  0  0  0  0  0  0  0  0
  -33.7650   13.3140  -28.5070 C   0  0  0  0  0  2  0  0  0  0  0  0
  -32.8340   13.6730  -29.6460 C   0  0  0  0  0  3  0  0  0  0  0  0
  -32.3940   12.5010  -30.3140 O   0  0  0  0  0  0  0  0  0  0  0  0
  -33.1580   12.0310  -30.6350 H   0  0  0  0  0  0  0  0  0  0  0  0
  -35.9580   15.3510  -32.3670 C   0  0  0  0  0  3  0  0  0  0  0  0
  -36.7120   14.7490  -33.4790 N   0  0  0  0  0  0  0  0  0  0  0  0
  -36.2000   14.2200  -34.6000 C   0  0  0  0  0  0  0  0  0  0  0  0
  -34.9930   14.2570  -34.8490 O   0  0  0  0  0  0  0  0  0  0  0  0
  -37.7050   14.6200  -33.3350 H   0  0  0  0  0  0  0  0  0  0  0  0
  -37.1940   13.5780  -35.5310 C   0  0  1  0  0  0  0  0  0  0  0  0
  -38.4590   13.4280  -34.9850 F   0  0  0  0  0  0  0  0  0  0  0  0
  -37.1180   13.8700  -37.0120 C   0  0  0  0  0  2  0  0  0  0  0  0
  -36.7370   12.5010  -36.4910 C   0  0  0  0  0  2  0  0  0  0  0  0
  -35.7580   17.4470  -30.8680 C   0  0  0  0  0  1  0  0  0  0  0  0
  -35.9830   17.6990  -33.3260 C   0  0  0  0  0  1  0  0  0  0  0  0
  -37.9510   16.9650  -31.9620 C   0  0  0  0  0  1  0  0  0  0  0  0
  -36.4200   16.8350  -32.1240 C   0  0  1  0  0  0  0  0  0  0  0  0
  -38.6560   14.2780  -23.9090 O   0  0  0  0  0  0  0  0  0  0  0  0
  -37.9880   17.2460  -25.7640 C   0  0  0  0  0  3  0  0  0  0  0  0
  -40.1080   16.4100  -26.3590 C   0  0  0  0  0  2  0  0  0  0  0  0
  -39.1160   17.3760  -26.6050 C   0  0  0  0  0  0  0  0  0  0  0  0
  -38.8200   15.3780  -24.7260 C   0  0  0  0  0  0  0  0  0  0  0  0
  -37.8390   16.2670  -24.8330 N   0  0  0  0  0  0  0  0  0  0  0  0
  -39.9630   15.4330  -25.4170 N   0  0  0  0  0  0  0  0  0  0  0  0
  -40.1370   18.9650  -28.3880 N   0  0  0  0  0  0  0  0  0  0  0  0
  -39.9700   19.5610  -29.7410 C   0  0  0  0  0  2  0  0  0  0  0  0
  -41.2370   19.5160  -30.6390 C   0  0  0  0  0  2  0  0  0  0  0  0
  -42.2440   18.6030  -30.1110 N   0  0  0  0  0  0  0  0  0  0  0  0
  -42.6300   18.7860  -28.7110 C   0  0  0  0  0  2  0  0  0  0  0  0
  -41.4570   19.3030  -27.8270 C   0  0  0  0  0  2  0  0  0  0  0  0
  -39.0670   18.3200  -27.8090 C   0  0  0  0  0  0  0  0  0  0  0  0
  -37.9430   18.4760  -28.2950 O   0  0  0  0  0  0  0  0  0  0  0  0
  -43.1570   18.0160  -31.0220 C   0  0  0  0  0  0  0  0  0  0  0  0
  -44.4630   18.5080  -31.2400 C   0  0  0  0  0  3  0  0  0  0  0  0
  -45.3190   17.8310  -32.1560 C   0  0  0  0  0  0  0  0  0  0  0  0
  -44.8630   16.7210  -32.8030 N   0  0  0  0  0  0  0  0  0  0  0  0
  -43.6350   16.2330  -32.6020 N   0  0  0  0  0  0  0  0  0  0  0  0
  -42.8010   16.8550  -31.7450 C   0  0  0  0  0  0  0  0  0  0  0  0
  -41.5650   16.2630  -31.5570 N   0  0  0  0  0  0  0  0  0  0  0  0
  -41.1030   16.6090  -30.7260 H   0  0  0  0  0  0  0  0  0  0  0  0
  -41.5310   15.2600  -31.6720 H   0  0  0  0  0  0  0  0  0  0  0  0
  -46.7310   18.2520  -32.4590 C   0  0  0  0  0  0  0  0  0  0  0  0
  -47.6260   17.5420  -33.3260 C   0  0  0  0  0  0  0  0  0  0  0  0
  -48.9450   17.9890  -33.5450 C   0  0  0  0  0  3  0  0  0  0  0  0
  -49.4230   19.1490  -32.9170 C   0  0  0  0  0  3  0  0  0  0  0  0
  -48.5700   19.8710  -32.0720 C   0  0  0  0  0  3  0  0  0  0  0  0
  -47.2520   19.4270  -31.8540 C   0  0  0  0  0  3  0  0  0  0  0  0
  -47.2750   16.4010  -33.9910 O   0  0  0  0  0  0  0  0  0  0  0  0
  -46.3630   16.1750  -33.8090 H   0  0  0  0  0  0  0  0  0  0  0  0
  1  2  1  0
  2  3  2  0
  3  9  1  0
  4  6  2  0
  5  4  1  0
  5  1  2  0
  6  3  1  0
  7 12  1  0
  7 10  1  0
  8 10  2  0
  9 11  1  0
  9  7  2  0
 11  8  1  0
 13  5  1  0
 14 15  2  0
 14 16  1  0
 16 13  1  0
 17 16  1  0
 18 22  2  0
 18 21  1  0
 19 23  1  0
 19 14  1  0
 20 21  1  0
 20 24  1  0
 21 19  1  0
 24 25  1  0
 24 23  1  0
 26 25  1  0
 27 39  1  0
 27 18  1  0
 28 31  1  0
 28 27  1  0
 29 28  1  0
 30 29  2  0
 32 33  1  1
 32 29  1  0
 34 35  1  0
 34 32  1  0
 35 32  1  0
 39 37  1  6
 39 38  1  0
 39 36  1  0
 40  1  1  0
 41 45  1  0
 42 46  1  0
 43 42  1  0
 43 41  2  0
 44 40  1  0
 45 44  2  0
 46 44  2  0
 47 52  1  0
 47 53  1  0
 48 47  1  0
 49 50  1  0
 49 48  1  0
 50 51  1  0
 51 52  1  0
 53 43  1  0
 54 53  2  0
 55 50  1  0
 56 55  1  0
 57 56  2  0
 58 59  2  0
 58 57  1  0
 59 60  1  0
 60 61  1  0
 60 55  2  0
 61 62  1  0
 63 61  1  0
 64 57  1  0
 64 69  1  0
 65 64  2  0
 66 65  1  0
 66 67  2  0
 67 68  1  0
 68 69  2  0
 70 71  1  0
 70 65  1  0
M  ISO  4  40 101  44 101  47 100  53 100
M  END
>  <TORSDO>  (86) 
F 15

>  <SCORE>  (86) 
-14.768

>  <name>  (86) 
85

>  <ligand_id>  (86) 
85

>  <original_smiles>  (86) 
[H]Oc1c([H])c([H])c([H])c([H])c1-c1nnc(N([H])[H])c(N2C([H])([H])C([H])([H])N(C(=O)c3c([H])nc(Oc4c([H])c(-c5sc([H])nc5C([H])([H])[H])c([H])c([H])c4C([H])([H])N([H])C(=O)C4([H])N(C(=O)C([H])(N([H])C(=O)C5(F)C([H])([H])C5([H])[H])C(C([H])([H])[H])(C([H])([H])[H])C([H])([H])[H])C([H])([H])C([H])(O[H])C4([H])[H])nc3[H])C([H])([H])C2([H])[H])c1[H]

>  <smiles>  (86) 
[H]Oc1c([H])c([H])c([H])c([H])c1-c1nnc(N([H])[H])c(N2C([H])([H])C([H])([H])N(C(=O)c3c([H])nc(Oc4c([H])c(-c5sc([H])nc5C([H])([H])[H])c([H])c([H])c4C([H])([H])N([H])C(=O)C4([H])N(C(=O)C([H])(N([H])C(=O)C5(F)C([H])([H])C5([H])[H])C(C([H])([H])[H])(C([H])([H])[H])C([H])([H])[H])C([H])([H])C([H])(O[H])C4([H])[H])nc3[H])C([H])([H])C2([H])[H])c1[H]

$$$$
86:0:0
     RDKit          3D

 76 84  0  0  1  0  0  0  0  0999 V2000
  -37.3740   13.5510  -23.8240 C   0  0  0  0  0  0  0  0  0  0  0  0
  -36.7170   13.4750  -22.5680 C   0  0  0  0  0  3  0  0  0  0  0  0
  -35.4850   12.7820  -22.4330 C   0  0  0  0  0  0  0  0  0  0  0  0
  -35.5800   12.2180  -24.8090 C   0  0  0  0  0  3  0  0  0  0  0  0
  -36.8120   12.8910  -24.9390 C   0  0  0  0  0  0  0  0  0  0  0  0
  -34.9170   12.1790  -23.5740 C   0  0  0  0  0  3  0  0  0  0  0  0
  -35.2540   12.1820  -19.9360 C   0  0  0  0  0  0  0  0  0  0  0  0
  -33.0920   12.5690  -19.3770 C   0  0  0  0  0  3  0  0  0  0  0  0
  -34.7890   12.6540  -21.1480 C   0  0  0  0  0  0  0  0  0  0  0  0
  -34.2770   12.1410  -18.9380 N   0  0  0  0  0  0  0  0  0  0  0  0
  -33.0910   13.0760  -21.0540 S   0  0  0  0  0  0  0  0  0  0  0  0
  -36.6300   11.6990  -19.6010 C   0  0  0  0  0  1  0  0  0  0  0  0
  -37.5430   12.9310  -26.2740 C   0  0  0  0  0  2  0  0  0  0  0  0
  -36.1980   13.6860  -28.1970 C   0  0  0  0  0  0  0  0  0  0  0  0
  -36.4970   14.8760  -28.0630 O   0  0  0  0  0  0  0  0  0  0  0  0
  -36.6970   12.7130  -27.4320 N   0  0  0  0  0  0  0  0  0  0  0  0
  -36.4140   11.7610  -27.6230 H   0  0  0  0  0  0  0  0  0  0  0  0
  -36.1210   14.4340  -31.2080 C   0  0  0  0  0  0  0  0  0  0  0  0
  -35.1510   13.2510  -29.2280 C   0  0  0  0  0  3  0  0  0  0  0  0
  -33.6670   14.4860  -30.6750 C   0  0  0  0  0  2  0  0  0  0  0  0
  -35.0660   14.1280  -30.4090 N   0  0  0  0  0  0  0  0  0  0  0  0
  -37.2460   13.9600  -31.0110 O   0  0  0  0  0  0  0  0  0  0  0  0
  -33.7590   13.2950  -28.5760 C   0  0  0  0  0  2  0  0  0  0  0  0
  -32.8230   13.6590  -29.7070 C   0  0  0  0  0  3  0  0  0  0  0  0
  -32.3830   12.4890  -30.3780 O   0  0  0  0  0  0  0  0  0  0  0  0
  -33.1480   12.0240  -30.7040 H   0  0  0  0  0  0  0  0  0  0  0  0
  -35.9250   15.3630  -32.4370 C   0  0  0  0  0  3  0  0  0  0  0  0
  -36.6770   14.7700  -33.5550 N   0  0  0  0  0  0  0  0  0  0  0  0
  -36.1660   14.3010  -34.7030 C   0  0  0  0  0  0  0  0  0  0  0  0
  -34.9660   14.3970  -34.9730 O   0  0  0  0  0  0  0  0  0  0  0  0
  -37.6590   14.5930  -33.3960 H   0  0  0  0  0  0  0  0  0  0  0  0
  -37.1510   13.6510  -35.6380 C   0  0  1  0  0  0  0  0  0  0  0  0
  -38.3850   13.3940  -35.0620 F   0  0  0  0  0  0  0  0  0  0  0  0
  -37.1430   14.0250  -37.1010 C   0  0  0  0  0  2  0  0  0  0  0  0
  -36.6640   12.6580  -36.6700 C   0  0  0  0  0  2  0  0  0  0  0  0
  -35.8230   17.4110  -30.8620 C   0  0  0  0  0  1  0  0  0  0  0  0
  -35.8260   17.7370  -33.3230 C   0  0  0  0  0  1  0  0  0  0  0  0
  -37.9190   17.0040  -32.1610 C   0  0  0  0  0  1  0  0  0  0  0  0
  -36.3830   16.8480  -32.1910 C   0  0  1  0  0  0  0  0  0  0  0  0
  -38.3390   14.4970  -24.0930 O   0  0  0  0  0  0  0  0  0  0  0  0
  -39.7180   17.7910  -26.2780 C   0  0  0  0  0  0  0  0  0  0  0  0
  -40.0610   16.6330  -25.6120 C   0  0  0  0  0  0  0  0  0  0  0  0
  -39.3520   18.7230  -25.2610 C   0  0  0  0  0  0  0  0  0  0  0  0
  -40.5380   15.2690  -26.0300 C   0  0  0  0  0  2  0  0  0  0  0  0
  -40.5850   14.1990  -24.8880 C   0  0  0  0  0  2  0  0  0  0  0  0
  -39.6860   14.4900  -23.6530 C   0  0  0  0  0  3  0  0  0  0  0  0
  -39.9440   15.9420  -23.1550 C   0  0  0  0  0  3  0  0  0  0  0  0
  -38.8420   20.1330  -25.3870 C   0  0  0  0  0  1  0  0  0  0  0  0
  -41.2910   16.1020  -22.4310 C   0  0  0  0  0  1  0  0  0  0  0  0
  -39.4580   18.1770  -24.0530 N   0  0  0  0  0  0  0  0  0  0  0  0
  -39.8340   16.8910  -24.2700 N   0  0  0  0  0  0  0  0  0  0  0  0
  -40.0890   19.1180  -28.3540 N   0  0  0  0  0  0  0  0  0  0  0  0
  -39.7820   19.5540  -29.7390 C   0  0  0  0  0  2  0  0  0  0  0  0
  -41.0250   19.5180  -30.6790 C   0  0  0  0  0  2  0  0  0  0  0  0
  -42.1000   18.7000  -30.1140 N   0  0  0  0  0  0  0  0  0  0  0  0
  -42.5080   18.9760  -28.7340 C   0  0  0  0  0  2  0  0  0  0  0  0
  -41.3790   19.6590  -27.9220 C   0  0  0  0  0  2  0  0  0  0  0  0
  -39.5680   17.9980  -27.7750 C   0  0  0  0  0  0  0  0  0  0  0  0
  -38.9180   17.1660  -28.4120 O   0  0  0  0  0  0  0  0  0  0  0  0
  -43.0090   18.0700  -30.9950 C   0  0  0  0  0  0  0  0  0  0  0  0
  -44.3130   18.5580  -31.2190 C   0  0  0  0  0  3  0  0  0  0  0  0
  -45.1780   17.8520  -32.0980 C   0  0  0  0  0  0  0  0  0  0  0  0
  -44.7330   16.7160  -32.7080 N   0  0  0  0  0  0  0  0  0  0  0  0
  -43.5070   16.2310  -32.4980 N   0  0  0  0  0  0  0  0  0  0  0  0
  -42.6610   16.8790  -31.6730 C   0  0  0  0  0  0  0  0  0  0  0  0
  -41.4280   16.2850  -31.4700 N   0  0  0  0  0  0  0  0  0  0  0  0
  -40.9480   16.6470  -30.6560 H   0  0  0  0  0  0  0  0  0  0  0  0
  -41.3940   15.2810  -31.5700 H   0  0  0  0  0  0  0  0  0  0  0  0
  -46.5910   18.2750  -32.4000 C   0  0  0  0  0  0  0  0  0  0  0  0
  -47.4750   17.5790  -33.2890 C   0  0  0  0  0  0  0  0  0  0  0  0
  -48.7940   18.0250  -33.5070 C   0  0  0  0  0  3  0  0  0  0  0  0
  -49.2810   19.1690  -32.8590 C   0  0  0  0  0  3  0  0  0  0  0  0
  -48.4390   19.8750  -31.9910 C   0  0  0  0  0  3  0  0  0  0  0  0
  -47.1210   19.4340  -31.7720 C   0  0  0  0  0  3  0  0  0  0  0  0
  -47.1130   16.4530  -33.9750 O   0  0  0  0  0  0  0  0  0  0  0  0
  -46.2000   16.2290  -33.7880 H   0  0  0  0  0  0  0  0  0  0  0  0
  1  2  1  0
  2  3  2  0
  3  9  1  0
  4  6  2  0
  5  4  1  0
  5  1  2  0
  6  3  1  0
  7 12  1  0
  7 10  1  0
  8 10  2  0
  9 11  1  0
  9  7  2  0
 11  8  1  0
 13  5  1  0
 14 15  2  0
 14 16  1  0
 16 13  1  0
 17 16  1  0
 18 22  2  0
 18 21  1  0
 19 23  1  0
 19 14  1  0
 20 21  1  0
 20 24  1  0
 21 19  1  0
 24 25  1  0
 24 23  1  0
 26 25  1  0
 27 39  1  0
 27 18  1  0
 28 31  1  0
 28 27  1  0
 29 28  1  0
 30 29  2  0
 32 33  1  1
 32 29  1  0
 34 35  1  0
 34 32  1  0
 35 32  1  0
 39 37  1  6
 39 38  1  0
 39 36  1  0
 40  1  1  0
 41 42  2  0
 41 43  1  0
 42 51  1  0
 43 50  2  0
 44 42  1  0
 44 45  1  0
 45 46  1  0
 46 40  1  0
 46 47  1  0
 47 49  1  0
 48 43  1  0
 51 50  1  0
 51 47  1  0
 52 57  1  0
 52 58  1  0
 53 52  1  0
 54 55  1  0
 54 53  1  0
 55 56  1  0
 56 57  1  0
 58 41  1  0
 59 58  2  0
 60 55  1  0
 61 60  1  0
 62 61  2  0
 63 64  2  0
 63 62  1  0
 64 65  1  0
 65 66  1  0
 65 60  2  0
 66 67  1  0
 68 66  1  0
 69 62  1  0
 69 74  1  0
 70 69  2  0
 71 70  1  0
 71 72  2  0
 72 73  1  0
 73 74  2  0
 75 76  1  0
 75 70  1  0
M  ISO  4  40 101  46 101  52 100  58 100
M  END
>  <TORSDO>  (87) 
F 15

>  <SCORE>  (87) 
-14.886

>  <name>  (87) 
86

>  <ligand_id>  (87) 
86

>  <original_smiles>  (87) 
[H]Oc1c([H])c([H])c([H])c([H])c1-c1nnc(N([H])[H])c(N2C([H])([H])C([H])([H])N(C(=O)c3c(C([H])([H])[H])nn4c3C([H])([H])C([H])([H])C([H])(Oc3c([H])c(-c5sc([H])nc5C([H])([H])[H])c([H])c([H])c3C([H])([H])N([H])C(=O)C3([H])N(C(=O)C([H])(N([H])C(=O)C5(F)C([H])([H])C5([H])[H])C(C([H])([H])[H])(C([H])([H])[H])C([H])([H])[H])C([H])([H])C([H])(O[H])C3([H])[H])C4([H])C([H])([H])[H])C([H])([H])C2([H])[H])c1[H]

>  <smiles>  (87) 
[H]Oc1c([H])c([H])c([H])c([H])c1-c1nnc(N([H])[H])c(N2C([H])([H])C([H])([H])N(C(=O)c3c(C([H])([H])[H])nn4c3C([H])([H])C([H])([H])C([H])(Oc3c([H])c(-c5sc([H])nc5C([H])([H])[H])c([H])c([H])c3C([H])([H])N([H])C(=O)C3([H])N(C(=O)C([H])(N([H])C(=O)C5(F)C([H])([H])C5([H])[H])C(C([H])([H])[H])(C([H])([H])[H])C([H])([H])[H])C([H])([H])C([H])(O[H])C3([H])[H])C4([H])C([H])([H])[H])C([H])([H])C2([H])[H])c1[H]

$$$$
87:0:0
     RDKit          3D

 76 83  0  0  1  0  0  0  0  0999 V2000
  -37.3620   13.5430  -23.7320 C   0  0  0  0  0  0  0  0  0  0  0  0
  -36.6780   13.4830  -22.4960 C   0  0  0  0  0  3  0  0  0  0  0  0
  -35.4120   12.8630  -22.3850 C   0  0  0  0  0  0  0  0  0  0  0  0
  -35.5190   12.3340  -24.7710 C   0  0  0  0  0  3  0  0  0  0  0  0
  -36.7990   12.9240  -24.8790 C   0  0  0  0  0  0  0  0  0  0  0  0
  -34.8310   12.3180  -23.5470 C   0  0  0  0  0  3  0  0  0  0  0  0
  -35.1740   12.3020  -19.8780 C   0  0  0  0  0  0  0  0  0  0  0  0
  -33.0090   12.7080  -19.3400 C   0  0  0  0  0  3  0  0  0  0  0  0
  -34.7150   12.7500  -21.1020 C   0  0  0  0  0  0  0  0  0  0  0  0
  -34.1900   12.2850  -18.8860 N   0  0  0  0  0  0  0  0  0  0  0  0
  -33.0190   13.1820  -21.0270 S   0  0  0  0  0  0  0  0  0  0  0  0
  -36.5470   11.8240  -19.5190 C   0  0  0  0  0  1  0  0  0  0  0  0
  -37.5740   12.8190  -26.1990 C   0  0  0  0  0  2  0  0  0  0  0  0
  -36.2060   13.6800  -28.0920 C   0  0  0  0  0  0  0  0  0  0  0  0
  -36.4880   14.8690  -27.9210 O   0  0  0  0  0  0  0  0  0  0  0  0
  -36.7200   12.6850  -27.3670 N   0  0  0  0  0  0  0  0  0  0  0  0
  -36.4340   11.7450  -27.6030 H   0  0  0  0  0  0  0  0  0  0  0  0
  -36.1490   14.4170  -31.1170 C   0  0  0  0  0  0  0  0  0  0  0  0
  -35.1600   13.2530  -29.1350 C   0  0  0  0  0  3  0  0  0  0  0  0
  -33.6900   14.4750  -30.6080 C   0  0  0  0  0  2  0  0  0  0  0  0
  -35.0870   14.1180  -30.3240 N   0  0  0  0  0  0  0  0  0  0  0  0
  -37.2700   13.9420  -30.9030 O   0  0  0  0  0  0  0  0  0  0  0  0
  -33.7610   13.3010  -28.4990 C   0  0  0  0  0  2  0  0  0  0  0  0
  -32.8340   13.6570  -29.6430 C   0  0  0  0  0  3  0  0  0  0  0  0
  -32.3980   12.4840  -30.3120 O   0  0  0  0  0  0  0  0  0  0  0  0
  -33.1650   12.0180  -30.6330 H   0  0  0  0  0  0  0  0  0  0  0  0
  -35.9680   15.3370  -32.3530 C   0  0  0  0  0  3  0  0  0  0  0  0
  -36.7090   14.7230  -33.4670 N   0  0  0  0  0  0  0  0  0  0  0  0
  -36.1860   14.1930  -34.5820 C   0  0  0  0  0  0  0  0  0  0  0  0
  -34.9770   14.2400  -34.8240 O   0  0  0  0  0  0  0  0  0  0  0  0
  -37.7020   14.5840  -33.3280 H   0  0  0  0  0  0  0  0  0  0  0  0
  -37.1680   13.5350  -35.5160 C   0  0  1  0  0  0  0  0  0  0  0  0
  -38.4350   13.3760  -34.9760 F   0  0  0  0  0  0  0  0  0  0  0  0
  -37.0850   13.8190  -36.9970 C   0  0  0  0  0  2  0  0  0  0  0  0
  -36.6960   12.4580  -36.4670 C   0  0  0  0  0  2  0  0  0  0  0  0
  -35.7950   17.4390  -30.8640 C   0  0  0  0  0  1  0  0  0  0  0  0
  -36.0130   17.6790  -33.3260 C   0  0  0  0  0  1  0  0  0  0  0  0
  -37.9790   16.9330  -31.9680 C   0  0  0  0  0  1  0  0  0  0  0  0
  -36.4470   16.8160  -32.1200 C   0  0  1  0  0  0  0  0  0  0  0  0
  -38.5520   14.2280  -23.7920 O   0  0  0  0  0  0  0  0  0  0  0  0
  -40.9150   17.4700  -23.3020 C   0  0  0  0  0  3  0  0  0  0  0  0
  -39.4960   16.2800  -24.6460 C   0  0  0  0  0  0  0  0  0  0  0  0
  -38.5670   15.3120  -24.6390 C   0  0  0  0  0  3  0  0  0  0  0  0
  -39.5590   19.7710  -25.9610 C   0  0  0  0  0  0  0  0  0  0  0  0
  -40.4420   18.7990  -23.8850 C   0  0  0  0  0  2  0  0  0  0  0  0
  -39.4860   17.3520  -25.7310 C   0  0  0  0  0  2  0  0  0  0  0  0
  -40.4660   16.3290  -23.6490 N   0  0  0  0  0  0  0  0  0  0  0  0
  -39.8250   18.6800  -25.2190 N   0  0  0  0  0  0  0  0  0  0  0  0
  -39.5900   20.9340  -25.5530 O   0  0  0  0  0  0  0  0  0  0  0  0
  -40.2900   19.3410  -28.3770 N   0  0  0  0  0  0  0  0  0  0  0  0
  -40.0120   19.4230  -29.8400 C   0  0  0  0  0  2  0  0  0  0  0  0
  -41.2700   19.4290  -30.7420 C   0  0  0  0  0  2  0  0  0  0  0  0
  -42.3210   18.5840  -30.1920 N   0  0  0  0  0  0  0  0  0  0  0  0
  -42.7780   18.8790  -28.8460 C   0  0  0  0  0  2  0  0  0  0  0  0
  -41.7030   19.5180  -27.9440 C   0  0  0  0  0  2  0  0  0  0  0  0
  -39.2890   19.5250  -27.4560 C   0  0  0  0  0  3  0  0  0  0  0  0
  -38.0050   19.5920  -27.8280 N   0  0  0  0  0  0  0  0  0  0  0  0
  -37.3130   19.8380  -27.1410 H   0  0  0  0  0  0  0  0  0  0  0  0
  -37.7040   19.4880  -28.7740 H   0  0  0  0  0  0  0  0  0  0  0  0
  -43.2540   18.0230  -31.0940 C   0  0  0  0  0  0  0  0  0  0  0  0
  -44.5540   18.5420  -31.2940 C   0  0  0  0  0  3  0  0  0  0  0  0
  -45.4340   17.8790  -32.1940 C   0  0  0  0  0  0  0  0  0  0  0  0
  -45.0050   16.7610  -32.8470 N   0  0  0  0  0  0  0  0  0  0  0  0
  -43.7830   16.2520  -32.6630 N   0  0  0  0  0  0  0  0  0  0  0  0
  -42.9270   16.8550  -31.8170 C   0  0  0  0  0  0  0  0  0  0  0  0
  -41.6990   16.2440  -31.6420 N   0  0  0  0  0  0  0  0  0  0  0  0
  -41.2330   16.5650  -30.8040 H   0  0  0  0  0  0  0  0  0  0  0  0
  -41.6740   15.2430  -31.7810 H   0  0  0  0  0  0  0  0  0  0  0  0
  -46.8430   18.3260  -32.4750 C   0  0  0  0  0  0  0  0  0  0  0  0
  -47.7690   17.6160  -33.3100 C   0  0  0  0  0  0  0  0  0  0  0  0
  -49.0820   18.0870  -33.5120 C   0  0  0  0  0  3  0  0  0  0  0  0
  -49.5220   19.2700  -32.9030 C   0  0  0  0  0  3  0  0  0  0  0  0
  -48.6380   19.9920  -32.0890 C   0  0  0  0  0  3  0  0  0  0  0  0
  -47.3270   19.5250  -31.8850 C   0  0  0  0  0  3  0  0  0  0  0  0
  -47.4560   16.4540  -33.9540 O   0  0  0  0  0  0  0  0  0  0  0  0
  -46.5440   16.2120  -33.7810 H   0  0  0  0  0  0  0  0  0  0  0  0
  1  2  1  0
  2  3  2  0
  3  9  1  0
  4  6  2  0
  5  4  1  0
  5  1  2  0
  6  3  1  0
  7 12  1  0
  7 10  1  0
  8 10  2  0
  9 11  1  0
  9  7  2  0
 11  8  1  0
 13  5  1  0
 14 15  2  0
 14 16  1  0
 16 13  1  0
 17 16  1  0
 18 22  2  0
 18 21  1  0
 19 23  1  0
 19 14  1  0
 20 21  1  0
 20 24  1  0
 21 19  1  0
 24 25  1  0
 24 23  1  0
 26 25  1  0
 27 39  1  0
 27 18  1  0
 28 31  1  0
 28 27  1  0
 29 28  1  0
 30 29  2  0
 32 33  1  1
 32 29  1  0
 34 35  1  0
 34 32  1  0
 35 32  1  0
 39 37  1  6
 39 38  1  0
 39 36  1  0
 40  1  1  0
 42 43  2  0
 42 47  1  0
 43 40  1  0
 44 49  2  0
 44 48  1  0
 45 41  1  0
 46 48  1  0
 46 42  1  0
 47 41  2  0
 48 45  1  0
 50 55  1  0
 50 56  1  0
 51 50  1  0
 52 53  1  0
 52 51  1  0
 53 54  1  0
 54 55  1  0
 56 44  1  0
 57 56  1  0
 57 58  1  0
 59 57  1  0
 60 53  1  0
 61 60  1  0
 62 61  2  0
 63 64  2  0
 63 62  1  0
 64 65  1  0
 65 66  1  0
 65 60  2  0
 66 67  1  0
 68 66  1  0
 69 62  1  0
 69 74  1  0
 70 69  2  0
 71 70  1  0
 71 72  2  0
 72 73  1  0
 73 74  2  0
 75 76  1  0
 75 70  1  0
M  ISO  4  40 101  43 101  50 100  56 100
M  END
>  <TORSDO>  (88) 
F 15

>  <SCORE>  (88) 
-14.755

>  <name>  (88) 
87

>  <ligand_id>  (88) 
87

>  <original_smiles>  (88) 
[H]Oc1c([H])c([H])c([H])c([H])c1-c1nnc(N([H])[H])c(N2C([H])([H])C([H])([H])N(C(C(=O)N3C([H])([H])C([H])=NC(=C([H])Oc4c([H])c(-c5sc([H])nc5C([H])([H])[H])c([H])c([H])c4C([H])([H])N([H])C(=O)C4([H])N(C(=O)C([H])(N([H])C(=O)C5(F)C([H])([H])C5([H])[H])C(C([H])([H])[H])(C([H])([H])[H])C([H])([H])[H])C([H])([H])C([H])(O[H])C4([H])[H])C3([H])[H])=[N+]([H])[H])C([H])([H])C2([H])[H])c1[H]

>  <smiles>  (88) 
[H]Oc1c([H])c([H])c([H])c([H])c1-c1nnc(N([H])[H])c(N2C([H])([H])C([H])([H])N(C(C(=O)N3C([H])([H])C([H])=NC(=C([H])Oc4c([H])c(-c5sc([H])nc5C([H])([H])[H])c([H])c([H])c4C([H])([H])N([H])C(=O)C4([H])N(C(=O)C([H])(N([H])C(=O)C5(F)C([H])([H])C5([H])[H])C(C([H])([H])[H])(C([H])([H])[H])C([H])([H])[H])C([H])([H])C([H])(O[H])C4([H])[H])C3([H])[H])=[N+]([H])[H])C([H])([H])C2([H])[H])c1[H]

$$$$
88:0:0
     RDKit          3D

 77 85  0  0  1  0  0  0  0  0999 V2000
  -37.3700   13.3480  -23.6580 C   0  0  0  0  0  0  0  0  0  0  0  0
  -36.6620   13.3160  -22.4490 C   0  0  0  0  0  3  0  0  0  0  0  0
  -35.3870   12.7420  -22.3750 C   0  0  0  0  0  0  0  0  0  0  0  0
  -35.4860   12.2940  -24.7760 C   0  0  0  0  0  3  0  0  0  0  0  0
  -36.7820   12.8460  -24.8480 C   0  0  0  0  0  0  0  0  0  0  0  0
  -34.7970   12.2450  -23.5560 C   0  0  0  0  0  3  0  0  0  0  0  0
  -35.2240   12.1780  -19.8680 C   0  0  0  0  0  0  0  0  0  0  0  0
  -33.0600   12.5410  -19.3090 C   0  0  0  0  0  3  0  0  0  0  0  0
  -34.7280   12.6050  -21.0860 C   0  0  0  0  0  0  0  0  0  0  0  0
  -34.2540   12.1460  -18.8630 N   0  0  0  0  0  0  0  0  0  0  0  0
  -33.0320   13.0060  -20.9930 S   0  0  0  0  0  0  0  0  0  0  0  0
  -36.6180   11.7410  -19.5270 C   0  0  0  0  0  1  0  0  0  0  0  0
  -37.5230   12.8740  -26.1840 C   0  0  0  0  0  2  0  0  0  0  0  0
  -36.1760   13.6460  -28.1120 C   0  0  0  0  0  0  0  0  0  0  0  0
  -36.4750   14.8340  -27.9730 O   0  0  0  0  0  0  0  0  0  0  0  0
  -36.6730   12.6660  -27.3470 N   0  0  0  0  0  0  0  0  0  0  0  0
  -36.3240   11.7260  -27.4830 H   0  0  0  0  0  0  0  0  0  0  0  0
  -36.1290   14.4080  -31.1240 C   0  0  0  0  0  0  0  0  0  0  0  0
  -35.1260   13.2280  -29.1490 C   0  0  0  0  0  3  0  0  0  0  0  0
  -33.6720   14.4680  -30.6230 C   0  0  0  0  0  2  0  0  0  0  0  0
  -35.0640   14.1050  -30.3340 N   0  0  0  0  0  0  0  0  0  0  0  0
  -37.2510   13.9310  -30.9130 O   0  0  0  0  0  0  0  0  0  0  0  0
  -33.7280   13.2970  -28.5070 C   0  0  0  0  0  2  0  0  0  0  0  0
  -32.8080   13.6560  -29.6560 C   0  0  0  0  0  3  0  0  0  0  0  0
  -32.3800   12.4800  -30.3230 O   0  0  0  0  0  0  0  0  0  0  0  0
  -33.1520   12.0090  -30.6190 H   0  0  0  0  0  0  0  0  0  0  0  0
  -35.9510   15.3330  -32.3580 C   0  0  0  0  0  3  0  0  0  0  0  0
  -35.7880   17.4270  -30.8590 C   0  0  0  0  0  1  0  0  0  0  0  0
  -36.0130   17.6830  -33.3210 C   0  0  0  0  0  1  0  0  0  0  0  0
  -37.9730   16.9100  -31.9590 C   0  0  0  0  0  1  0  0  0  0  0  0
  -36.4400   16.8090  -32.1200 C   0  0  1  0  0  0  0  0  0  0  0  0
  -36.6870   14.7200  -33.4750 N   0  0  0  0  0  0  0  0  0  0  0  0
  -36.1550   14.1880  -34.5850 C   0  0  0  0  0  0  0  0  0  0  0  0
  -34.9440   14.2360  -34.8190 O   0  0  0  0  0  0  0  0  0  0  0  0
  -37.6810   14.5910  -33.3430 H   0  0  0  0  0  0  0  0  0  0  0  0
  -37.1270   13.5300  -35.5260 C   0  0  1  0  0  0  0  0  0  0  0  0
  -38.3950   13.3590  -34.9930 F   0  0  0  0  0  0  0  0  0  0  0  0
  -37.0420   13.8190  -37.0080 C   0  0  0  0  0  2  0  0  0  0  0  0
  -36.6410   12.4590  -36.4810 C   0  0  0  0  0  2  0  0  0  0  0  0
  -38.6760   13.7310  -23.6300 O   0  0  0  0  0  0  0  0  0  0  0  0
  -39.0720   14.7840  -22.7500 C   0  0  0  0  0  2  0  0  0  0  0  0
  -39.6640   15.4630  -25.0280 C   0  0  0  0  0  2  0  0  0  0  0  0
  -41.5850   15.1120  -23.2960 C   0  0  0  0  0  3  0  0  0  0  0  0
  -40.4640   14.2910  -25.6990 C   0  0  0  0  0  2  0  0  0  0  0  0
  -42.5160   14.7480  -24.5020 C   0  0  0  0  0  3  0  0  0  0  0  0
  -40.1070   15.5670  -23.5600 C   0  0  0  0  0  3  0  0  0  0  0  0
  -41.8610   14.6770  -25.8220 N   0  0  0  0  0  0  0  0  0  0  0  0
  -40.3330   19.2720  -28.2490 N   0  0  0  0  0  0  0  0  0  0  0  0
  -39.8890   19.3120  -29.6690 C   0  0  0  0  0  2  0  0  0  0  0  0
  -41.0630   19.3120  -30.7090 C   0  0  0  0  0  2  0  0  0  0  0  0
  -42.2600   18.6890  -30.1490 N   0  0  0  0  0  0  0  0  0  0  0  0
  -42.7370   19.2350  -28.8810 C   0  0  0  0  0  2  0  0  0  0  0  0
  -41.5850   20.0200  -28.1810 C   0  0  0  0  0  2  0  0  0  0  0  0
  -41.1710   15.8280  -27.8650 C   0  0  0  0  0  3  0  0  0  0  0  0
  -41.3810   18.0430  -26.3510 C   0  0  0  0  0  0  0  0  0  0  0  0
  -41.8790   15.8310  -26.6300 C   0  0  0  0  0  0  0  0  0  0  0  0
  -40.6570   18.0570  -27.5990 C   0  0  0  0  0  0  0  0  0  0  0  0
  -41.3910   19.1580  -25.3150 C   0  0  0  0  0  1  0  0  0  0  0  0
  -40.5500   16.9280  -28.3400 N   0  0  0  0  0  0  0  0  0  0  0  0
  -42.0890   16.9740  -25.9520 N   0  0  0  0  0  0  0  0  0  0  0  0
  -43.1510   18.0440  -31.0270 C   0  0  0  0  0  0  0  0  0  0  0  0
  -44.4460   18.5420  -31.2460 C   0  0  0  0  0  3  0  0  0  0  0  0
  -45.3060   17.8570  -32.1410 C   0  0  0  0  0  0  0  0  0  0  0  0
  -44.8600   16.7350  -32.7750 N   0  0  0  0  0  0  0  0  0  0  0  0
  -43.6370   16.2400  -32.5690 N   0  0  0  0  0  0  0  0  0  0  0  0
  -42.7960   16.8660  -31.7190 C   0  0  0  0  0  0  0  0  0  0  0  0
  -41.5720   16.2560  -31.5150 N   0  0  0  0  0  0  0  0  0  0  0  0
  -41.1290   16.5550  -30.6520 H   0  0  0  0  0  0  0  0  0  0  0  0
  -41.5410   15.2650  -31.6920 H   0  0  0  0  0  0  0  0  0  0  0  0
  -46.7070   18.3110  -32.4320 C   0  0  0  0  0  0  0  0  0  0  0  0
  -47.6160   17.6100  -33.2900 C   0  0  0  0  0  0  0  0  0  0  0  0
  -48.9250   18.0850  -33.5060 C   0  0  0  0  0  3  0  0  0  0  0  0
  -49.3740   19.2590  -32.8810 C   0  0  0  0  0  3  0  0  0  0  0  0
  -48.5040   19.9710  -32.0460 C   0  0  0  0  0  3  0  0  0  0  0  0
  -47.1960   19.5020  -31.8300 C   0  0  0  0  0  3  0  0  0  0  0  0
  -47.2880   16.4540  -33.9380 O   0  0  0  0  0  0  0  0  0  0  0  0
  -46.3850   16.2030  -33.7380 H   0  0  0  0  0  0  0  0  0  0  0  0
  1 40  1  0
  1  2  1  0
  2  3  2  0
  3  9  1  0
  4  6  2  0
  5  4  1  0
  5  1  2  0
  6  3  1  0
  7 12  1  0
  7 10  1  0
  8 10  2  0
  9 11  1  0
  9  7  2  0
 11  8  1  0
 13  5  1  0
 14 15  2  0
 14 16  1  0
 16 13  1  0
 17 16  1  0
 18 22  2  0
 18 21  1  0
 19 23  1  0
 19 14  1  0
 20 21  1  0
 20 24  1  0
 21 19  1  0
 24 25  1  0
 24 23  1  0
 26 25  1  0
 27 31  1  0
 27 18  1  0
 31 29  1  6
 31 30  1  0
 31 28  1  0
 32 35  1  0
 32 27  1  0
 33 32  1  0
 34 33  2  0
 36 37  1  1
 36 33  1  0
 38 39  1  0
 38 36  1  0
 39 36  1  0
 40 41  1  0
 42 46  1  0
 44 42  1  0
 45 43  2  0
 46 43  1  0
 46 41  1  0
 47 44  1  0
 47 45  1  0
 48 53  1  0
 48 57  1  0
 49 48  1  0
 50 51  1  0
 50 49  1  0
 51 52  1  0
 52 53  1  0
 54 56  1  0
 55 60  1  0
 55 58  1  0
 56 60  2  0
 56 47  1  0
 57 55  2  0
 59 54  2  0
 59 57  1  0
 61 51  1  0
 62 61  1  0
 63 62  2  0
 64 65  2  0
 64 63  1  0
 65 66  1  0
 66 67  1  0
 66 61  2  0
 67 68  1  0
 69 67  1  0
 70 63  1  0
 70 75  1  0
 71 70  2  0
 72 71  1  0
 72 73  2  0
 73 74  1  0
 74 75  2  0
 76 77  1  0
 76 71  1  0
M  ISO  4  40 101  41 101  48 100  57 100
M  END
>  <TORSDO>  (89) 
F 16

>  <SCORE>  (89) 
-14.811

>  <name>  (89) 
88

>  <ligand_id>  (89) 
88

>  <original_smiles>  (89) 
[H]Oc1c([H])c([H])c([H])c([H])c1-c1nnc(N([H])[H])c(N2C([H])([H])C([H])([H])N(c3nc([H])c(N4C([H])([H])C([H])([H])C([H])(C([H])([H])Oc5c([H])c(-c6sc([H])nc6C([H])([H])[H])c([H])c([H])c5C([H])([H])N([H])C(=O)C5([H])N(C(=O)C([H])(N([H])C(=O)C6(F)C([H])([H])C6([H])[H])C(C([H])([H])[H])(C([H])([H])[H])C([H])([H])[H])C([H])([H])C([H])(O[H])C5([H])[H])C([H])([H])C4([H])[H])nc3C([H])([H])[H])C([H])([H])C2([H])[H])c1[H]

>  <smiles>  (89) 
[H]Oc1c([H])c([H])c([H])c([H])c1-c1nnc(N([H])[H])c(N2C([H])([H])C([H])([H])N(c3nc([H])c(N4C([H])([H])C([H])([H])C([H])(C([H])([H])Oc5c([H])c(-c6sc([H])nc6C([H])([H])[H])c([H])c([H])c5C([H])([H])N([H])C(=O)C5([H])N(C(=O)C([H])(N([H])C(=O)C6(F)C([H])([H])C6([H])[H])C(C([H])([H])[H])(C([H])([H])[H])C([H])([H])[H])C([H])([H])C([H])(O[H])C5([H])[H])C([H])([H])C4([H])[H])nc3C([H])([H])[H])C([H])([H])C2([H])[H])c1[H]

$$$$
89:0:0
     RDKit          3D

 73 80  0  0  1  0  0  0  0  0999 V2000
  -37.3840   13.5670  -23.7180 C   0  0  0  0  0  0  0  0  0  0  0  0
  -36.6950   13.4930  -22.4810 C   0  0  0  0  0  3  0  0  0  0  0  0
  -35.4230   12.8760  -22.3840 C   0  0  0  0  0  0  0  0  0  0  0  0
  -35.5220   12.4050  -24.7830 C   0  0  0  0  0  3  0  0  0  0  0  0
  -36.8040   12.9910  -24.8690 C   0  0  0  0  0  0  0  0  0  0  0  0
  -34.8380   12.3560  -23.5570 C   0  0  0  0  0  3  0  0  0  0  0  0
  -35.1810   12.2500  -19.8890 C   0  0  0  0  0  0  0  0  0  0  0  0
  -33.0190   12.6550  -19.3430 C   0  0  0  0  0  3  0  0  0  0  0  0
  -34.7270   12.7320  -21.1030 C   0  0  0  0  0  0  0  0  0  0  0  0
  -34.1960   12.2130  -18.8980 N   0  0  0  0  0  0  0  0  0  0  0  0
  -33.0330   13.1690  -21.0180 S   0  0  0  0  0  0  0  0  0  0  0  0
  -36.5480   11.7520  -19.5410 C   0  0  0  0  0  1  0  0  0  0  0  0
  -37.5830   12.9910  -26.1840 C   0  0  0  0  0  2  0  0  0  0  0  0
  -36.1960   13.7380  -28.0910 C   0  0  0  0  0  0  0  0  0  0  0  0
  -36.4390   14.9360  -27.9260 O   0  0  0  0  0  0  0  0  0  0  0  0
  -36.7500   12.7700  -27.3560 N   0  0  0  0  0  0  0  0  0  0  0  0
  -36.5160   11.8120  -27.5760 H   0  0  0  0  0  0  0  0  0  0  0  0
  -36.1440   14.4580  -31.1130 C   0  0  0  0  0  0  0  0  0  0  0  0
  -35.1630   13.2820  -29.1330 C   0  0  0  0  0  3  0  0  0  0  0  0
  -33.6840   14.4900  -30.6120 C   0  0  0  0  0  2  0  0  0  0  0  0
  -35.0820   14.1460  -30.3260 N   0  0  0  0  0  0  0  0  0  0  0  0
  -37.2700   13.9950  -30.8970 O   0  0  0  0  0  0  0  0  0  0  0  0
  -33.7600   13.3150  -28.5030 C   0  0  0  0  0  2  0  0  0  0  0  0
  -32.8350   13.6630  -29.6500 C   0  0  0  0  0  3  0  0  0  0  0  0
  -32.4100   12.4860  -30.3210 O   0  0  0  0  0  0  0  0  0  0  0  0
  -33.1810   12.0230  -30.6350 H   0  0  0  0  0  0  0  0  0  0  0  0
  -35.9560   15.3770  -32.3500 C   0  0  0  0  0  3  0  0  0  0  0  0
  -35.7450   17.4870  -30.8680 C   0  0  0  0  0  1  0  0  0  0  0  0
  -35.9920   17.7180  -33.3270 C   0  0  0  0  0  1  0  0  0  0  0  0
  -37.9470   16.9930  -31.9400 C   0  0  0  0  0  1  0  0  0  0  0  0
  -36.4180   16.8630  -32.1140 C   0  0  1  0  0  0  0  0  0  0  0  0
  -36.7100   14.7720  -33.4600 N   0  0  0  0  0  0  0  0  0  0  0  0
  -36.1960   14.2210  -34.5680 C   0  0  0  0  0  0  0  0  0  0  0  0
  -34.9860   14.2370  -34.8080 O   0  0  0  0  0  0  0  0  0  0  0  0
  -37.7050   14.6560  -33.3210 H   0  0  0  0  0  0  0  0  0  0  0  0
  -37.1910   13.5800  -35.5000 C   0  0  1  0  0  0  0  0  0  0  0  0
  -38.4630   13.4590  -34.9640 F   0  0  0  0  0  0  0  0  0  0  0  0
  -37.0960   13.8460  -36.9840 C   0  0  0  0  0  2  0  0  0  0  0  0
  -36.7430   12.4810  -36.4380 C   0  0  0  0  0  2  0  0  0  0  0  0
  -38.6450   14.1090  -23.8340 O   0  0  0  0  0  0  0  0  0  0  0  0
  -38.8320   15.4670  -23.4170 C   0  0  0  0  0  2  0  0  0  0  0  0
  -39.3700   16.6370  -25.6560 C   0  0  0  0  0  3  0  0  0  0  0  0
  -39.0860   17.6990  -26.5450 C   0  0  0  0  0  0  0  0  0  0  0  0
  -38.5650   16.5110  -24.5090 C   0  0  0  0  0  0  0  0  0  0  0  0
  -37.3360   18.3180  -25.1930 C   0  0  0  0  0  0  0  0  0  0  0  0
  -36.1570   19.2370  -24.9560 C   0  0  0  0  0  1  0  0  0  0  0  0
  -38.0550   18.5340  -26.2850 N   0  0  0  0  0  0  0  0  0  0  0  0
  -37.5440   17.3620  -24.2970 N   0  0  0  0  0  0  0  0  0  0  0  0
  -40.2300   19.0770  -28.2320 N   0  0  0  0  0  0  0  0  0  0  0  0
  -39.9640   19.6060  -29.5840 C   0  0  0  0  0  2  0  0  0  0  0  0
  -41.1840   19.5290  -30.5440 C   0  0  0  0  0  2  0  0  0  0  0  0
  -42.2470   18.6770  -30.0130 N   0  0  0  0  0  0  0  0  0  0  0  0
  -42.6810   18.9070  -28.6330 C   0  0  0  0  0  2  0  0  0  0  0  0
  -41.5490   19.5220  -27.7610 C   0  0  0  0  0  2  0  0  0  0  0  0
  -39.7920   17.8410  -27.8780 C   0  0  0  0  0  0  0  0  0  0  0  0
  -39.8870   16.8600  -28.6250 O   0  0  0  0  0  0  0  0  0  0  0  0
  -43.1190   18.0530  -30.9350 C   0  0  0  0  0  0  0  0  0  0  0  0
  -44.4290   18.5190  -31.1770 C   0  0  0  0  0  3  0  0  0  0  0  0
  -45.2480   17.8300  -32.1140 C   0  0  0  0  0  0  0  0  0  0  0  0
  -44.7550   16.7340  -32.7580 N   0  0  0  0  0  0  0  0  0  0  0  0
  -43.5230   16.2690  -32.5300 N   0  0  0  0  0  0  0  0  0  0  0  0
  -42.7200   16.9000  -31.6500 C   0  0  0  0  0  0  0  0  0  0  0  0
  -41.4770   16.3300  -31.4390 N   0  0  0  0  0  0  0  0  0  0  0  0
  -41.0330   16.6530  -30.5840 H   0  0  0  0  0  0  0  0  0  0  0  0
  -41.4130   15.3350  -31.5880 H   0  0  0  0  0  0  0  0  0  0  0  0
  -46.6600   18.2300  -32.4430 C   0  0  0  0  0  0  0  0  0  0  0  0
  -47.5320   17.4940  -33.3120 C   0  0  0  0  0  0  0  0  0  0  0  0
  -48.8530   17.9210  -33.5560 C   0  0  0  0  0  3  0  0  0  0  0  0
  -49.3550   19.0830  -32.9540 C   0  0  0  0  0  3  0  0  0  0  0  0
  -48.5250   19.8290  -32.1070 C   0  0  0  0  0  3  0  0  0  0  0  0
  -47.2050   19.4080  -31.8630 C   0  0  0  0  0  3  0  0  0  0  0  0
  -47.1560   16.3470  -33.9540 O   0  0  0  0  0  0  0  0  0  0  0  0
  -46.2430   16.1360  -33.7540 H   0  0  0  0  0  0  0  0  0  0  0  0
  1  2  1  0
  2  3  2  0
  3  9  1  0
  4  6  2  0
  5  4  1  0
  5  1  2  0
  6  3  1  0
  7 12  1  0
  7 10  1  0
  8 10  2  0
  9 11  1  0
  9  7  2  0
 11  8  1  0
 13  5  1  0
 14 15  2  0
 14 16  1  0
 16 13  1  0
 17 16  1  0
 18 22  2  0
 18 21  1  0
 19 23  1  0
 19 14  1  0
 20 21  1  0
 20 24  1  0
 21 19  1  0
 24 25  1  0
 24 23  1  0
 26 25  1  0
 27 31  1  0
 27 18  1  0
 31 29  1  6
 31 30  1  0
 31 28  1  0
 32 35  1  0
 32 27  1  0
 33 32  1  0
 34 33  2  0
 36 37  1  1
 36 33  1  0
 38 39  1  0
 38 36  1  0
 39 36  1  0
 40  1  1  0
 40 41  1  0
 42 44  1  0
 43 47  1  0
 43 42  2  0
 44 48  2  0
 44 41  1  0
 45 46  1  0
 45 48  1  0
 47 45  2  0
 49 55  1  0
 49 54  1  0
 50 49  1  0
 51 52  1  0
 51 50  1  0
 52 53  1  0
 53 54  1  0
 55 43  1  0
 56 55  2  0
 57 52  1  0
 58 57  1  0
 59 58  2  0
 60 61  2  0
 60 59  1  0
 61 62  1  0
 62 63  1  0
 62 57  2  0
 63 64  1  0
 65 63  1  0
 66 59  1  0
 66 71  1  0
 67 66  2  0
 68 67  1  0
 68 69  2  0
 69 70  1  0
 70 71  2  0
 72 73  1  0
 72 67  1  0
M  ISO  4  40 101  41 101  49 100  55 100
M  END
>  <TORSDO>  (90) 
F 16

>  <SCORE>  (90) 
-14.592

>  <name>  (90) 
89

>  <ligand_id>  (90) 
89

>  <original_smiles>  (90) 
[H]Oc1c([H])c([H])c([H])c([H])c1-c1nnc(N([H])[H])c(N2C([H])([H])C([H])([H])N(C(=O)c3nc(C([H])([H])[H])nc(C([H])([H])Oc4c([H])c(-c5sc([H])nc5C([H])([H])[H])c([H])c([H])c4C([H])([H])N([H])C(=O)C4([H])N(C(=O)C([H])(N([H])C(=O)C5(F)C([H])([H])C5([H])[H])C(C([H])([H])[H])(C([H])([H])[H])C([H])([H])[H])C([H])([H])C([H])(O[H])C4([H])[H])c3[H])C([H])([H])C2([H])[H])c1[H]

>  <smiles>  (90) 
[H]Oc1c([H])c([H])c([H])c([H])c1-c1nnc(N([H])[H])c(N2C([H])([H])C([H])([H])N(C(=O)c3nc(C([H])([H])[H])nc(C([H])([H])Oc4c([H])c(-c5sc([H])nc5C([H])([H])[H])c([H])c([H])c4C([H])([H])N([H])C(=O)C4([H])N(C(=O)C([H])(N([H])C(=O)C5(F)C([H])([H])C5([H])[H])C(C([H])([H])[H])(C([H])([H])[H])C([H])([H])[H])C([H])([H])C([H])(O[H])C4([H])[H])c3[H])C([H])([H])C2([H])[H])c1[H]

$$$$
90:0:0
     RDKit          3D

 77 85  0  0  1  0  0  0  0  0999 V2000
  -37.3990   13.4420  -23.6910 C   0  0  0  0  0  0  0  0  0  0  0  0
  -36.6820   13.4240  -22.4710 C   0  0  0  0  0  3  0  0  0  0  0  0
  -35.4050   12.8350  -22.3880 C   0  0  0  0  0  0  0  0  0  0  0  0
  -35.5010   12.3760  -24.7890 C   0  0  0  0  0  3  0  0  0  0  0  0
  -36.7970   12.9340  -24.8640 C   0  0  0  0  0  0  0  0  0  0  0  0
  -34.8170   12.3270  -23.5630 C   0  0  0  0  0  3  0  0  0  0  0  0
  -35.1810   12.2420  -19.8890 C   0  0  0  0  0  0  0  0  0  0  0  0
  -33.0280   12.6850  -19.3360 C   0  0  0  0  0  3  0  0  0  0  0  0
  -34.7170   12.7050  -21.1050 C   0  0  0  0  0  0  0  0  0  0  0  0
  -34.2040   12.2380  -18.8890 N   0  0  0  0  0  0  0  0  0  0  0  0
  -33.0330   13.1640  -21.0190 S   0  0  0  0  0  0  0  0  0  0  0  0
  -36.5450   11.7400  -19.5290 C   0  0  0  0  0  1  0  0  0  0  0  0
  -37.5800   12.9360  -26.1740 C   0  0  0  0  0  2  0  0  0  0  0  0
  -36.2020   13.6980  -28.0870 C   0  0  0  0  0  0  0  0  0  0  0  0
  -36.4470   14.8930  -27.9140 O   0  0  0  0  0  0  0  0  0  0  0  0
  -36.7550   12.7250  -27.3580 N   0  0  0  0  0  0  0  0  0  0  0  0
  -36.5260   11.7680  -27.5910 H   0  0  0  0  0  0  0  0  0  0  0  0
  -36.1440   14.4270  -31.1090 C   0  0  0  0  0  0  0  0  0  0  0  0
  -35.1620   13.2530  -29.1270 C   0  0  0  0  0  3  0  0  0  0  0  0
  -33.6890   14.4830  -30.5950 C   0  0  0  0  0  2  0  0  0  0  0  0
  -35.0840   14.1220  -30.3160 N   0  0  0  0  0  0  0  0  0  0  0  0
  -37.2670   13.9530  -30.8980 O   0  0  0  0  0  0  0  0  0  0  0  0
  -33.7650   13.3030  -28.4890 C   0  0  0  0  0  2  0  0  0  0  0  0
  -32.8340   13.6680  -29.6270 C   0  0  0  0  0  3  0  0  0  0  0  0
  -32.3880   12.5010  -30.3010 O   0  0  0  0  0  0  0  0  0  0  0  0
  -33.1480   12.0360  -30.6350 H   0  0  0  0  0  0  0  0  0  0  0  0
  -35.9620   15.3550  -32.3400 C   0  0  0  0  0  3  0  0  0  0  0  0
  -35.7120   17.4550  -30.8560 C   0  0  0  0  0  1  0  0  0  0  0  0
  -36.0160   17.7010  -33.3090 C   0  0  0  0  0  1  0  0  0  0  0  0
  -37.9400   16.9770  -31.8770 C   0  0  0  0  0  1  0  0  0  0  0  0
  -36.4160   16.8420  -32.0910 C   0  0  1  0  0  0  0  0  0  0  0  0
  -36.7250   14.7600  -33.4510 N   0  0  0  0  0  0  0  0  0  0  0  0
  -36.2210   14.2130  -34.5660 C   0  0  0  0  0  0  0  0  0  0  0  0
  -35.0120   14.2260  -34.8140 O   0  0  0  0  0  0  0  0  0  0  0  0
  -37.7200   14.6480  -33.3060 H   0  0  0  0  0  0  0  0  0  0  0  0
  -37.2240   13.5800  -35.4950 C   0  0  1  0  0  0  0  0  0  0  0  0
  -38.4920   13.4580  -34.9500 F   0  0  0  0  0  0  0  0  0  0  0  0
  -37.1390   13.8560  -36.9770 C   0  0  0  0  0  2  0  0  0  0  0  0
  -36.7840   12.4870  -36.4440 C   0  0  0  0  0  2  0  0  0  0  0  0
  -38.6980   13.8850  -23.7630 O   0  0  0  0  0  0  0  0  0  0  0  0
  -39.1350   16.9880  -25.3510 C   0  0  0  0  0  3  0  0  0  0  0  0
  -39.5120   16.7300  -24.0250 C   0  0  0  0  0  3  0  0  0  0  0  0
  -41.2950   16.1390  -26.0250 C   0  0  0  0  0  3  0  0  0  0  0  0
  -40.0310   16.6350  -26.3710 C   0  0  0  0  0  0  0  0  0  0  0  0
  -40.7310   16.0570  -23.7730 C   0  0  0  0  0  0  0  0  0  0  0  0
  -40.9020   13.1070  -23.0570 C   0  0  0  0  0  2  0  0  0  0  0  0
  -41.8430   14.2370  -22.6080 C   0  0  0  0  0  2  0  0  0  0  0  0
  -39.8250   14.9010  -21.8640 C   0  0  0  0  0  2  0  0  0  0  0  0
  -39.5180   13.5980  -22.6170 C   0  0  0  0  0  3  0  0  0  0  0  0
  -41.6340   15.8600  -24.7570 N   0  0  0  0  0  0  0  0  0  0  0  0
  -41.0100   15.4430  -22.5270 N   0  0  0  0  0  0  0  0  0  0  0  0
  -39.6220   16.7240  -27.8210 C   0  0  0  0  0  2  0  0  0  0  0  0
  -40.0840   19.0400  -28.5530 N   0  0  0  0  0  0  0  0  0  0  0  0
  -39.9400   19.7100  -29.8390 C   0  0  0  0  0  2  0  0  0  0  0  0
  -41.1680   19.4760  -30.7580 C   0  0  0  0  0  2  0  0  0  0  0  0
  -42.1750   18.5800  -30.1750 N   0  0  0  0  0  0  0  0  0  0  0  0
  -42.5600   18.7800  -28.7810 C   0  0  0  0  0  2  0  0  0  0  0  0
  -41.3860   19.3090  -27.9250 C   0  0  0  0  0  2  0  0  0  0  0  0
  -39.1600   18.1220  -28.2160 C   0  0  0  0  0  0  0  0  0  0  0  0
  -37.9530   18.3120  -28.3940 O   0  0  0  0  0  0  0  0  0  0  0  0
  -43.1180   18.0060  -31.0540 C   0  0  0  0  0  0  0  0  0  0  0  0
  -44.4240   18.5180  -31.2430 C   0  0  0  0  0  3  0  0  0  0  0  0
  -45.3030   17.8570  -32.1450 C   0  0  0  0  0  0  0  0  0  0  0  0
  -44.8750   16.7430  -32.8040 N   0  0  0  0  0  0  0  0  0  0  0  0
  -43.6520   16.2340  -32.6240 N   0  0  0  0  0  0  0  0  0  0  0  0
  -42.7950   16.8420  -31.7820 C   0  0  0  0  0  0  0  0  0  0  0  0
  -41.5630   16.2310  -31.6170 N   0  0  0  0  0  0  0  0  0  0  0  0
  -41.0760   16.5760  -30.8030 H   0  0  0  0  0  0  0  0  0  0  0  0
  -41.5560   15.2280  -31.7250 H   0  0  0  0  0  0  0  0  0  0  0  0
  -46.7130   18.3040  -32.4250 C   0  0  0  0  0  0  0  0  0  0  0  0
  -47.6390   17.6070  -33.2700 C   0  0  0  0  0  0  0  0  0  0  0  0
  -48.9530   18.0850  -33.4670 C   0  0  0  0  0  3  0  0  0  0  0  0
  -49.3890   19.2620  -32.8440 C   0  0  0  0  0  3  0  0  0  0  0  0
  -48.5050   19.9710  -32.0230 C   0  0  0  0  0  3  0  0  0  0  0  0
  -47.1950   19.4960  -31.8200 C   0  0  0  0  0  3  0  0  0  0  0  0
  -47.3280   16.4540  -33.9370 O   0  0  0  0  0  0  0  0  0  0  0  0
  -46.4170   16.2040  -33.7850 H   0  0  0  0  0  0  0  0  0  0  0  0
  1  2  1  0
  2  3  2  0
  3  9  1  0
  4  6  2  0
  5  4  1  0
  5  1  2  0
  6  3  1  0
  7 12  1  0
  7 10  1  0
  8 10  2  0
  9 11  1  0
  9  7  2  0
 11  8  1  0
 13  5  1  0
 14 15  2  0
 14 16  1  0
 16 13  1  0
 17 16  1  0
 18 22  2  0
 18 21  1  0
 19 23  1  0
 19 14  1  0
 20 21  1  0
 20 24  1  0
 21 19  1  0
 24 25  1  0
 24 23  1  0
 26 25  1  0
 27 31  1  0
 27 18  1  0
 31 29  1  6
 31 30  1  0
 31 28  1  0
 32 35  1  0
 32 27  1  0
 33 32  1  0
 34 33  2  0
 36 37  1  1
 36 33  1  0
 38 39  1  0
 38 36  1  0
 39 36  1  0
 40  1  1  0
 41 42  1  0
 42 45  2  0
 43 50  2  0
 44 43  1  0
 44 41  2  0
 45 51  1  0
 46 49  1  0
 46 47  1  0
 47 51  1  0
 49 40  1  0
 49 48  1  0
 50 45  1  0
 51 48  1  0
 52 44  1  0
 53 59  1  0
 53 58  1  0
 54 53  1  0
 55 56  1  0
 55 54  1  0
 56 57  1  0
 57 58  1  0
 59 52  1  0
 60 59  2  0
 61 56  1  0
 62 61  1  0
 63 62  2  0
 64 65  2  0
 64 63  1  0
 65 66  1  0
 66 67  1  0
 66 61  2  0
 67 68  1  0
 69 67  1  0
 70 63  1  0
 70 75  1  0
 71 70  2  0
 72 71  1  0
 72 73  2  0
 73 74  1  0
 74 75  2  0
 76 77  1  0
 76 71  1  0
M  ISO  4  40 101  49 101  53 100  59 100
M  END
>  <TORSDO>  (91) 
F 16

>  <SCORE>  (91) 
-14.646

>  <name>  (91) 
90

>  <ligand_id>  (91) 
90

>  <original_smiles>  (91) 
[H]Oc1c([H])c([H])c([H])c([H])c1-c1nnc(N([H])[H])c(N2C([H])([H])C([H])([H])N(C(=O)C([H])([H])c3c([H])nc(N4C([H])([H])C([H])([H])C([H])(Oc5c([H])c(-c6sc([H])nc6C([H])([H])[H])c([H])c([H])c5C([H])([H])N([H])C(=O)C5([H])N(C(=O)C([H])(N([H])C(=O)C6(F)C([H])([H])C6([H])[H])C(C([H])([H])[H])(C([H])([H])[H])C([H])([H])[H])C([H])([H])C([H])(O[H])C5([H])[H])C4([H])[H])c([H])c3[H])C([H])([H])C2([H])[H])c1[H]

>  <smiles>  (91) 
[H]Oc1c([H])c([H])c([H])c([H])c1-c1nnc(N([H])[H])c(N2C([H])([H])C([H])([H])N(C(=O)C([H])([H])c3c([H])nc(N4C([H])([H])C([H])([H])C([H])(Oc5c([H])c(-c6sc([H])nc6C([H])([H])[H])c([H])c([H])c5C([H])([H])N([H])C(=O)C5([H])N(C(=O)C([H])(N([H])C(=O)C6(F)C([H])([H])C6([H])[H])C(C([H])([H])[H])(C([H])([H])[H])C([H])([H])[H])C([H])([H])C([H])(O[H])C5([H])[H])C4([H])[H])c([H])c3[H])C([H])([H])C2([H])[H])c1[H]

$$$$
91:0:0
     RDKit          3D

 70 77  0  0  1  0  0  0  0  0999 V2000
  -37.3720   13.5700  -23.7750 C   0  0  0  0  0  0  0  0  0  0  0  0
  -36.7000   13.5010  -22.5250 C   0  0  0  0  0  3  0  0  0  0  0  0
  -35.4320   12.8750  -22.4110 C   0  0  0  0  0  0  0  0  0  0  0  0
  -35.5230   12.3610  -24.8020 C   0  0  0  0  0  3  0  0  0  0  0  0
  -36.7990   12.9560  -24.9080 C   0  0  0  0  0  0  0  0  0  0  0  0
  -34.8430   12.3350  -23.5730 C   0  0  0  0  0  3  0  0  0  0  0  0
  -35.1760   12.2780  -19.9100 C   0  0  0  0  0  0  0  0  0  0  0  0
  -33.0180   12.7070  -19.3690 C   0  0  0  0  0  3  0  0  0  0  0  0
  -34.7300   12.7530  -21.1280 C   0  0  0  0  0  0  0  0  0  0  0  0
  -34.1910   12.2580  -18.9190 N   0  0  0  0  0  0  0  0  0  0  0  0
  -33.0380   13.2050  -21.0490 S   0  0  0  0  0  0  0  0  0  0  0  0
  -36.5400   11.7730  -19.5560 C   0  0  0  0  0  1  0  0  0  0  0  0
  -37.5760   12.9330  -26.2220 C   0  0  0  0  0  2  0  0  0  0  0  0
  -36.1990   13.7010  -28.1270 C   0  0  0  0  0  0  0  0  0  0  0  0
  -36.4660   14.8930  -27.9670 O   0  0  0  0  0  0  0  0  0  0  0  0
  -36.7340   12.7260  -27.3890 N   0  0  0  0  0  0  0  0  0  0  0  0
  -36.4800   11.7710  -27.6050 H   0  0  0  0  0  0  0  0  0  0  0  0
  -36.1450   14.4280  -31.1450 C   0  0  0  0  0  0  0  0  0  0  0  0
  -35.1580   13.2590  -29.1640 C   0  0  0  0  0  3  0  0  0  0  0  0
  -33.6860   14.4800  -30.6370 C   0  0  0  0  0  2  0  0  0  0  0  0
  -35.0820   14.1250  -30.3550 N   0  0  0  0  0  0  0  0  0  0  0  0
  -37.2690   13.9600  -30.9310 O   0  0  0  0  0  0  0  0  0  0  0  0
  -33.7590   13.3060  -28.5280 C   0  0  0  0  0  2  0  0  0  0  0  0
  -32.8320   13.6600  -29.6720 C   0  0  0  0  0  3  0  0  0  0  0  0
  -32.4000   12.4850  -30.3410 O   0  0  0  0  0  0  0  0  0  0  0  0
  -33.1670   12.0180  -30.6560 H   0  0  0  0  0  0  0  0  0  0  0  0
  -35.9620   15.3490  -32.3810 C   0  0  0  0  0  3  0  0  0  0  0  0
  -36.7190   14.7440  -33.4900 N   0  0  0  0  0  0  0  0  0  0  0  0
  -36.2090   14.2060  -34.6060 C   0  0  0  0  0  0  0  0  0  0  0  0
  -35.0010   14.2340  -34.8550 O   0  0  0  0  0  0  0  0  0  0  0  0
  -37.7130   14.6210  -33.3460 H   0  0  0  0  0  0  0  0  0  0  0  0
  -37.2040   13.5620  -35.5340 C   0  0  1  0  0  0  0  0  0  0  0  0
  -38.4710   13.4200  -34.9880 F   0  0  0  0  0  0  0  0  0  0  0  0
  -37.1270   13.8440  -37.0160 C   0  0  0  0  0  2  0  0  0  0  0  0
  -36.7520   12.4770  -36.4890 C   0  0  0  0  0  2  0  0  0  0  0  0
  -35.7500   17.4500  -30.8910 C   0  0  0  0  0  1  0  0  0  0  0  0
  -35.9930   17.6920  -33.3500 C   0  0  0  0  0  1  0  0  0  0  0  0
  -37.9520   16.9670  -31.9680 C   0  0  0  0  0  1  0  0  0  0  0  0
  -36.4230   16.8330  -32.1410 C   0  0  1  0  0  0  0  0  0  0  0  0
  -38.5380   14.2910  -23.9390 O   0  0  0  0  0  0  0  0  0  0  0  0
  -38.2850   15.7090  -24.0930 C   0  0  0  0  0  2  0  0  0  0  0  0
  -40.3660   19.1040  -28.0840 N   0  0  0  0  0  0  0  0  0  0  0  0
  -39.9530   19.4280  -29.4670 C   0  0  0  0  0  2  0  0  0  0  0  0
  -41.1540   19.4810  -30.4750 C   0  0  0  0  0  2  0  0  0  0  0  0
  -42.2810   18.6630  -30.0140 N   0  0  0  0  0  0  0  0  0  0  0  0
  -42.7580   18.8700  -28.6460 C   0  0  0  0  0  2  0  0  0  0  0  0
  -41.7060   19.6000  -27.7810 C   0  0  0  0  0  2  0  0  0  0  0  0
  -40.2240   16.5860  -25.5500 C   0  0  0  0  0  3  0  0  0  0  0  0
  -38.0330   17.0960  -26.2710 C   0  0  0  0  0  3  0  0  0  0  0  0
  -38.8510   16.4130  -25.3460 C   0  0  0  0  0  0  0  0  0  0  0  0
  -39.8480   18.0640  -27.2870 C   0  0  0  0  0  0  0  0  0  0  0  0
  -40.7050   17.4090  -26.5060 N   0  0  0  0  0  0  0  0  0  0  0  0
  -38.5330   17.9200  -27.2300 N   0  0  0  0  0  0  0  0  0  0  0  0
  -43.1410   18.0510  -30.9560 C   0  0  0  0  0  0  0  0  0  0  0  0
  -44.4560   18.5080  -31.1940 C   0  0  0  0  0  3  0  0  0  0  0  0
  -45.2720   17.8180  -32.1310 C   0  0  0  0  0  0  0  0  0  0  0  0
  -44.7720   16.7290  -32.7810 N   0  0  0  0  0  0  0  0  0  0  0  0
  -43.5360   16.2730  -32.5590 N   0  0  0  0  0  0  0  0  0  0  0  0
  -42.7360   16.9060  -31.6780 C   0  0  0  0  0  0  0  0  0  0  0  0
  -41.4940   16.3370  -31.4620 N   0  0  0  0  0  0  0  0  0  0  0  0
  -41.0760   16.6610  -30.5990 H   0  0  0  0  0  0  0  0  0  0  0  0
  -41.4380   15.3390  -31.6030 H   0  0  0  0  0  0  0  0  0  0  0  0
  -46.6890   18.2090  -32.4540 C   0  0  0  0  0  0  0  0  0  0  0  0
  -47.5540   17.4770  -33.3330 C   0  0  0  0  0  0  0  0  0  0  0  0
  -48.8780   17.8960  -33.5740 C   0  0  0  0  0  3  0  0  0  0  0  0
  -49.3900   19.0470  -32.9580 C   0  0  0  0  0  3  0  0  0  0  0  0
  -48.5670   19.7880  -32.1000 C   0  0  0  0  0  3  0  0  0  0  0  0
  -47.2440   19.3740  -31.8600 C   0  0  0  0  0  3  0  0  0  0  0  0
  -47.1670   16.3420  -33.9880 O   0  0  0  0  0  0  0  0  0  0  0  0
  -46.2540   16.1360  -33.7890 H   0  0  0  0  0  0  0  0  0  0  0  0
  1  2  1  0
  2  3  2  0
  3  9  1  0
  4  6  2  0
  5  4  1  0
  5  1  2  0
  6  3  1  0
  7 12  1  0
  7 10  1  0
  8 10  2  0
  9 11  1  0
  9  7  2  0
 11  8  1  0
 13  5  1  0
 14 15  2  0
 14 16  1  0
 16 13  1  0
 17 16  1  0
 18 22  2  0
 18 21  1  0
 19 23  1  0
 19 14  1  0
 20 21  1  0
 20 24  1  0
 21 19  1  0
 24 25  1  0
 24 23  1  0
 26 25  1  0
 27 39  1  0
 27 18  1  0
 28 31  1  0
 28 27  1  0
 29 28  1  0
 30 29  2  0
 32 33  1  1
 32 29  1  0
 34 35  1  0
 34 32  1  0
 35 32  1  0
 39 37  1  6
 39 38  1  0
 39 36  1  0
 40  1  1  0
 41 40  1  0
 42 47  1  0
 42 51  1  0
 43 42  1  0
 44 45  1  0
 44 43  1  0
 45 46  1  0
 46 47  1  0
 48 50  2  0
 49 50  1  0
 50 41  1  0
 51 53  1  0
 51 52  2  0
 52 48  1  0
 53 49  2  0
 54 45  1  0
 55 54  1  0
 56 55  2  0
 57 58  2  0
 57 56  1  0
 58 59  1  0
 59 60  1  0
 59 54  2  0
 60 61  1  0
 62 60  1  0
 63 56  1  0
 63 68  1  0
 64 63  2  0
 65 64  1  0
 65 66  2  0
 66 67  1  0
 67 68  2  0
 69 70  1  0
 69 64  1  0
M  ISO  4  40 101  41 101  42 100  51 100
M  END
>  <TORSDO>  (92) 
F 15

>  <SCORE>  (92) 
-14.649

>  <name>  (92) 
91

>  <ligand_id>  (92) 
91

>  <original_smiles>  (92) 
[H]Oc1c([H])c([H])c([H])c([H])c1-c1nnc(N([H])[H])c(N2C([H])([H])C([H])([H])N(c3nc([H])c(C([H])([H])Oc4c([H])c(-c5sc([H])nc5C([H])([H])[H])c([H])c([H])c4C([H])([H])N([H])C(=O)C4([H])N(C(=O)C([H])(N([H])C(=O)C5(F)C([H])([H])C5([H])[H])C(C([H])([H])[H])(C([H])([H])[H])C([H])([H])[H])C([H])([H])C([H])(O[H])C4([H])[H])c([H])n3)C([H])([H])C2([H])[H])c1[H]

>  <smiles>  (92) 
[H]Oc1c([H])c([H])c([H])c([H])c1-c1nnc(N([H])[H])c(N2C([H])([H])C([H])([H])N(c3nc([H])c(C([H])([H])Oc4c([H])c(-c5sc([H])nc5C([H])([H])[H])c([H])c([H])c4C([H])([H])N([H])C(=O)C4([H])N(C(=O)C([H])(N([H])C(=O)C5(F)C([H])([H])C5([H])[H])C(C([H])([H])[H])(C([H])([H])[H])C([H])([H])[H])C([H])([H])C([H])(O[H])C4([H])[H])c([H])n3)C([H])([H])C2([H])[H])c1[H]

$$$$
92:0:0
     RDKit          3D

 70 77  0  0  1  0  0  0  0  0999 V2000
  -37.3810   13.5670  -23.7620 C   0  0  0  0  0  0  0  0  0  0  0  0
  -36.7040   13.4960  -22.5150 C   0  0  0  0  0  3  0  0  0  0  0  0
  -35.4380   12.8660  -22.4020 C   0  0  0  0  0  0  0  0  0  0  0  0
  -35.5360   12.3530  -24.7940 C   0  0  0  0  0  3  0  0  0  0  0  0
  -36.8120   12.9520  -24.8960 C   0  0  0  0  0  0  0  0  0  0  0  0
  -34.8550   12.3240  -23.5660 C   0  0  0  0  0  3  0  0  0  0  0  0
  -35.1820   12.2700  -19.9010 C   0  0  0  0  0  0  0  0  0  0  0  0
  -33.0190   12.6820  -19.3650 C   0  0  0  0  0  3  0  0  0  0  0  0
  -34.7330   12.7390  -21.1210 C   0  0  0  0  0  0  0  0  0  0  0  0
  -34.1940   12.2460  -18.9120 N   0  0  0  0  0  0  0  0  0  0  0  0
  -33.0390   13.1770  -21.0460 S   0  0  0  0  0  0  0  0  0  0  0  0
  -36.5490   11.7780  -19.5420 C   0  0  0  0  0  1  0  0  0  0  0  0
  -37.5900   12.9290  -26.2090 C   0  0  0  0  0  2  0  0  0  0  0  0
  -36.2090   13.6960  -28.1120 C   0  0  0  0  0  0  0  0  0  0  0  0
  -36.4660   14.8890  -27.9480 O   0  0  0  0  0  0  0  0  0  0  0  0
  -36.7500   12.7210  -27.3780 N   0  0  0  0  0  0  0  0  0  0  0  0
  -36.5040   11.7670  -27.5990 H   0  0  0  0  0  0  0  0  0  0  0  0
  -36.1580   14.4470  -31.1230 C   0  0  0  0  0  0  0  0  0  0  0  0
  -35.1710   13.2560  -29.1540 C   0  0  0  0  0  3  0  0  0  0  0  0
  -33.6980   14.4870  -30.6180 C   0  0  0  0  0  2  0  0  0  0  0  0
  -35.0950   14.1330  -30.3370 N   0  0  0  0  0  0  0  0  0  0  0  0
  -37.2830   13.9790  -30.9110 O   0  0  0  0  0  0  0  0  0  0  0  0
  -33.7720   13.2960  -28.5180 C   0  0  0  0  0  2  0  0  0  0  0  0
  -32.8460   13.6560  -29.6600 C   0  0  0  0  0  3  0  0  0  0  0  0
  -32.4190   12.4860  -30.3380 O   0  0  0  0  0  0  0  0  0  0  0  0
  -33.1870   12.0240  -30.6560 H   0  0  0  0  0  0  0  0  0  0  0  0
  -35.9730   15.3760  -32.3520 C   0  0  0  0  0  3  0  0  0  0  0  0
  -36.7300   14.7800  -33.4650 N   0  0  0  0  0  0  0  0  0  0  0  0
  -36.2200   14.2410  -34.5810 C   0  0  0  0  0  0  0  0  0  0  0  0
  -35.0100   14.2620  -34.8270 O   0  0  0  0  0  0  0  0  0  0  0  0
  -37.7250   14.6620  -33.3250 H   0  0  0  0  0  0  0  0  0  0  0  0
  -37.2160   13.6060  -35.5140 C   0  0  1  0  0  0  0  0  0  0  0  0
  -38.4860   13.4720  -34.9730 F   0  0  0  0  0  0  0  0  0  0  0  0
  -37.1310   13.8910  -36.9960 C   0  0  0  0  0  2  0  0  0  0  0  0
  -36.7680   12.5200  -36.4690 C   0  0  0  0  0  2  0  0  0  0  0  0
  -35.7540   17.4700  -30.8520 C   0  0  0  0  0  1  0  0  0  0  0  0
  -36.0090   17.7250  -33.3090 C   0  0  0  0  0  1  0  0  0  0  0  0
  -37.9600   16.9920  -31.9220 C   0  0  0  0  0  1  0  0  0  0  0  0
  -36.4330   16.8590  -32.1020 C   0  0  1  0  0  0  0  0  0  0  0  0
  -38.5650   14.2580  -23.9130 O   0  0  0  0  0  0  0  0  0  0  0  0
  -38.3890   15.6960  -23.9840 C   0  0  0  0  0  2  0  0  0  0  0  0
  -40.3350   19.1190  -28.1110 N   0  0  0  0  0  0  0  0  0  0  0  0
  -39.9280   19.3730  -29.5080 C   0  0  0  0  0  2  0  0  0  0  0  0
  -41.1410   19.4480  -30.4990 C   0  0  0  0  0  2  0  0  0  0  0  0
  -42.2730   18.6410  -30.0280 N   0  0  0  0  0  0  0  0  0  0  0  0
  -42.7340   18.8410  -28.6540 C   0  0  0  0  0  2  0  0  0  0  0  0
  -41.6850   19.5820  -27.7940 C   0  0  0  0  0  2  0  0  0  0  0  0
  -37.9150   16.9890  -26.1850 C   0  0  0  0  0  3  0  0  0  0  0  0
  -38.3940   17.8410  -27.2160 C   0  0  0  0  0  3  0  0  0  0  0  0
  -38.8420   16.4160  -25.2810 C   0  0  0  0  0  0  0  0  0  0  0  0
  -39.7790   18.1070  -27.2740 C   0  0  0  0  0  0  0  0  0  0  0  0
  -40.1710   16.6440  -25.4370 N   0  0  0  0  0  0  0  0  0  0  0  0
  -40.6160   17.4660  -26.4040 N   0  0  0  0  0  0  0  0  0  0  0  0
  -43.1390   18.0260  -30.9620 C   0  0  0  0  0  0  0  0  0  0  0  0
  -44.4510   18.4900  -31.1970 C   0  0  0  0  0  3  0  0  0  0  0  0
  -45.2770   17.7990  -32.1250 C   0  0  0  0  0  0  0  0  0  0  0  0
  -44.7880   16.7020  -32.7700 N   0  0  0  0  0  0  0  0  0  0  0  0
  -43.5550   16.2390  -32.5490 N   0  0  0  0  0  0  0  0  0  0  0  0
  -42.7470   16.8720  -31.6760 C   0  0  0  0  0  0  0  0  0  0  0  0
  -41.5070   16.2960  -31.4620 N   0  0  0  0  0  0  0  0  0  0  0  0
  -41.0830   16.6250  -30.6040 H   0  0  0  0  0  0  0  0  0  0  0  0
  -41.4590   15.2960  -31.5930 H   0  0  0  0  0  0  0  0  0  0  0  0
  -46.6930   18.1990  -32.4460 C   0  0  0  0  0  0  0  0  0  0  0  0
  -47.5650   17.4690  -33.3190 C   0  0  0  0  0  0  0  0  0  0  0  0
  -48.8870   17.8970  -33.5570 C   0  0  0  0  0  3  0  0  0  0  0  0
  -49.3880   19.0550  -32.9460 C   0  0  0  0  0  3  0  0  0  0  0  0
  -48.5570   19.7950  -32.0950 C   0  0  0  0  0  3  0  0  0  0  0  0
  -47.2370   19.3720  -31.8570 C   0  0  0  0  0  3  0  0  0  0  0  0
  -47.1890   16.3270  -33.9690 O   0  0  0  0  0  0  0  0  0  0  0  0
  -46.2770   16.1160  -33.7720 H   0  0  0  0  0  0  0  0  0  0  0  0
  1  2  1  0
  2  3  2  0
  3  9  1  0
  4  6  2  0
  5  4  1  0
  5  1  2  0
  6  3  1  0
  7 12  1  0
  7 10  1  0
  8 10  2  0
  9 11  1  0
  9  7  2  0
 11  8  1  0
 13  5  1  0
 14 15  2  0
 14 16  1  0
 16 13  1  0
 17 16  1  0
 18 22  2  0
 18 21  1  0
 19 23  1  0
 19 14  1  0
 20 21  1  0
 20 24  1  0
 21 19  1  0
 24 25  1  0
 24 23  1  0
 26 25  1  0
 27 39  1  0
 27 18  1  0
 28 31  1  0
 28 27  1  0
 29 28  1  0
 30 29  2  0
 32 33  1  1
 32 29  1  0
 34 35  1  0
 34 32  1  0
 35 32  1  0
 39 37  1  6
 39 38  1  0
 39 36  1  0
 40  1  1  0
 41 40  1  0
 42 47  1  0
 42 51  1  0
 43 42  1  0
 44 45  1  0
 44 43  1  0
 45 46  1  0
 46 47  1  0
 48 50  1  0
 49 48  2  0
 50 41  1  0
 51 49  1  0
 51 53  2  0
 52 50  2  0
 53 52  1  0
 54 45  1  0
 55 54  1  0
 56 55  2  0
 57 58  2  0
 57 56  1  0
 58 59  1  0
 59 60  1  0
 59 54  2  0
 60 61  1  0
 62 60  1  0
 63 56  1  0
 63 68  1  0
 64 63  2  0
 65 64  1  0
 65 66  2  0
 66 67  1  0
 67 68  2  0
 69 70  1  0
 69 64  1  0
M  ISO  4  40 101  41 101  42 100  51 100
M  END
>  <TORSDO>  (93) 
F 15

>  <SCORE>  (93) 
-14.658

>  <name>  (93) 
92

>  <ligand_id>  (93) 
92

>  <original_smiles>  (93) 
[H]Oc1c([H])c([H])c([H])c([H])c1-c1nnc(N([H])[H])c(N2C([H])([H])C([H])([H])N(c3nnc(C([H])([H])Oc4c([H])c(-c5sc([H])nc5C([H])([H])[H])c([H])c([H])c4C([H])([H])N([H])C(=O)C4([H])N(C(=O)C([H])(N([H])C(=O)C5(F)C([H])([H])C5([H])[H])C(C([H])([H])[H])(C([H])([H])[H])C([H])([H])[H])C([H])([H])C([H])(O[H])C4([H])[H])c([H])c3[H])C([H])([H])C2([H])[H])c1[H]

>  <smiles>  (93) 
[H]Oc1c([H])c([H])c([H])c([H])c1-c1nnc(N([H])[H])c(N2C([H])([H])C([H])([H])N(c3nnc(C([H])([H])Oc4c([H])c(-c5sc([H])nc5C([H])([H])[H])c([H])c([H])c4C([H])([H])N([H])C(=O)C4([H])N(C(=O)C([H])(N([H])C(=O)C5(F)C([H])([H])C5([H])[H])C(C([H])([H])[H])(C([H])([H])[H])C([H])([H])[H])C([H])([H])C([H])(O[H])C4([H])[H])c([H])c3[H])C([H])([H])C2([H])[H])c1[H]

$$$$
93:0:0
     RDKit          3D

 74 81  0  0  1  0  0  0  0  0999 V2000
  -37.3880   13.5450  -23.7530 C   0  0  0  0  0  0  0  0  0  0  0  0
  -36.7140   13.4750  -22.5070 C   0  0  0  0  0  3  0  0  0  0  0  0
  -35.4600   12.8300  -22.3900 C   0  0  0  0  0  0  0  0  0  0  0  0
  -35.5580   12.3040  -24.7780 C   0  0  0  0  0  3  0  0  0  0  0  0
  -36.8230   12.9220  -24.8860 C   0  0  0  0  0  0  0  0  0  0  0  0
  -34.8810   12.2700  -23.5480 C   0  0  0  0  0  3  0  0  0  0  0  0
  -35.2350   12.2560  -19.8820 C   0  0  0  0  0  0  0  0  0  0  0  0
  -33.0660   12.6230  -19.3380 C   0  0  0  0  0  3  0  0  0  0  0  0
  -34.7670   12.6990  -21.1040 C   0  0  0  0  0  0  0  0  0  0  0  0
  -34.2540   12.2200  -18.8870 N   0  0  0  0  0  0  0  0  0  0  0  0
  -33.0640   13.0990  -21.0260 S   0  0  0  0  0  0  0  0  0  0  0  0
  -36.6160   11.8010  -19.5240 C   0  0  0  0  0  1  0  0  0  0  0  0
  -37.5970   12.9050  -26.2000 C   0  0  0  0  0  2  0  0  0  0  0  0
  -36.2150   13.6890  -28.0930 C   0  0  0  0  0  0  0  0  0  0  0  0
  -36.4780   14.8820  -27.9170 O   0  0  0  0  0  0  0  0  0  0  0  0
  -36.7570   12.7060  -27.3700 N   0  0  0  0  0  0  0  0  0  0  0  0
  -36.5090   11.7530  -27.5990 H   0  0  0  0  0  0  0  0  0  0  0  0
  -36.1560   14.4430  -31.1050 C   0  0  0  0  0  0  0  0  0  0  0  0
  -35.1740   13.2530  -29.1340 C   0  0  0  0  0  3  0  0  0  0  0  0
  -33.6980   14.4840  -30.5950 C   0  0  0  0  0  2  0  0  0  0  0  0
  -35.0950   14.1300  -30.3160 N   0  0  0  0  0  0  0  0  0  0  0  0
  -37.2800   13.9730  -30.8970 O   0  0  0  0  0  0  0  0  0  0  0  0
  -33.7750   13.2910  -28.4970 C   0  0  0  0  0  2  0  0  0  0  0  0
  -32.8460   13.6540  -29.6370 C   0  0  0  0  0  3  0  0  0  0  0  0
  -32.4160   12.4840  -30.3170 O   0  0  0  0  0  0  0  0  0  0  0  0
  -33.1840   12.0220  -30.6380 H   0  0  0  0  0  0  0  0  0  0  0  0
  -35.9700   15.3750  -32.3320 C   0  0  0  0  0  3  0  0  0  0  0  0
  -35.7410   17.4650  -30.8280 C   0  0  0  0  0  1  0  0  0  0  0  0
  -36.0030   17.7250  -33.2840 C   0  0  0  0  0  1  0  0  0  0  0  0
  -37.9520   16.9940  -31.8930 C   0  0  0  0  0  1  0  0  0  0  0  0
  -36.4250   16.8590  -32.0770 C   0  0  1  0  0  0  0  0  0  0  0  0
  -36.7300   14.7840  -33.4460 N   0  0  0  0  0  0  0  0  0  0  0  0
  -36.2220   14.2420  -34.5620 C   0  0  0  0  0  0  0  0  0  0  0  0
  -35.0130   14.2550  -34.8060 O   0  0  0  0  0  0  0  0  0  0  0  0
  -37.7260   14.6750  -33.3070 H   0  0  0  0  0  0  0  0  0  0  0  0
  -37.2230   13.6160  -35.4980 C   0  0  1  0  0  0  0  0  0  0  0  0
  -38.4940   13.4930  -34.9580 F   0  0  0  0  0  0  0  0  0  0  0  0
  -37.1310   13.8980  -36.9790 C   0  0  0  0  0  2  0  0  0  0  0  0
  -36.7810   12.5250  -36.4490 C   0  0  0  0  0  2  0  0  0  0  0  0
  -38.5930   14.1970  -23.8870 O   0  0  0  0  0  0  0  0  0  0  0  0
  -38.5260   15.6360  -23.8600 C   0  0  0  0  0  2  0  0  0  0  0  0
  -38.8180   16.3900  -25.1860 C   0  0  0  0  0  0  0  0  0  0  0  0
  -39.6010   18.0420  -27.4360 C   0  0  0  0  0  0  0  0  0  0  0  0
  -39.8730   16.0010  -26.0520 C   0  0  0  0  0  0  0  0  0  0  0  0
  -38.1150   17.5850  -25.5080 C   0  0  0  0  0  0  0  0  0  0  0  0
  -40.2130   16.7780  -27.1890 C   0  0  0  0  0  0  0  0  0  0  0  0
  -38.5100   18.4020  -26.6040 C   0  0  0  0  0  0  0  0  0  0  0  0
  -40.8370   14.5990  -25.7010 Cl  0  0  0  0  0  0  0  0  0  0  0  0
  -36.8040   18.1290  -24.5100 Cl  0  0  0  0  0  0  0  0  0  0  0  0
  -41.4190   16.1390  -28.2550 Cl  0  0  0  0  0  0  0  0  0  0  0  0
  -37.6910   19.9070  -26.8820 Cl  0  0  0  0  0  0  0  0  0  0  0  0
  -40.1570   19.0170  -28.3230 N   0  0  0  0  0  0  0  0  0  0  0  0
  -39.7670   19.2260  -29.7270 C   0  0  0  0  0  2  0  0  0  0  0  0
  -40.9930   19.3540  -30.6910 C   0  0  0  0  0  2  0  0  0  0  0  0
  -42.1660   18.6560  -30.1610 N   0  0  0  0  0  0  0  0  0  0  0  0
  -42.6120   19.0290  -28.8180 C   0  0  0  0  0  2  0  0  0  0  0  0
  -41.4560   19.5580  -27.9310 C   0  0  0  0  0  2  0  0  0  0  0  0
  -43.0780   18.0400  -31.0480 C   0  0  0  0  0  0  0  0  0  0  0  0
  -44.3830   18.5360  -31.2480 C   0  0  0  0  0  3  0  0  0  0  0  0
  -45.2580   17.8570  -32.1380 C   0  0  0  0  0  0  0  0  0  0  0  0
  -44.8250   16.7350  -32.7780 N   0  0  0  0  0  0  0  0  0  0  0  0
  -43.6000   16.2380  -32.5900 N   0  0  0  0  0  0  0  0  0  0  0  0
  -42.7420   16.8620  -31.7550 C   0  0  0  0  0  0  0  0  0  0  0  0
  -41.5130   16.2540  -31.5810 N   0  0  0  0  0  0  0  0  0  0  0  0
  -41.0770   16.5780  -30.7260 H   0  0  0  0  0  0  0  0  0  0  0  0
  -41.5140   15.2500  -31.6830 H   0  0  0  0  0  0  0  0  0  0  0  0
  -46.6670   18.3000  -32.4200 C   0  0  0  0  0  0  0  0  0  0  0  0
  -47.5920   17.5850  -33.2500 C   0  0  0  0  0  0  0  0  0  0  0  0
  -48.9060   18.0530  -33.4530 C   0  0  0  0  0  3  0  0  0  0  0  0
  -49.3470   19.2380  -32.8480 C   0  0  0  0  0  3  0  0  0  0  0  0
  -48.4650   19.9650  -32.0390 C   0  0  0  0  0  3  0  0  0  0  0  0
  -47.1520   19.5010  -31.8350 C   0  0  0  0  0  3  0  0  0  0  0  0
  -47.2760   16.4200  -33.8910 O   0  0  0  0  0  0  0  0  0  0  0  0
  -46.3650   16.1800  -33.7180 H   0  0  0  0  0  0  0  0  0  0  0  0
  1  2  1  0
  2  3  2  0
  3  9  1  0
  4  6  2  0
  5  4  1  0
  5  1  2  0
  6  3  1  0
  7 12  1  0
  7 10  1  0
  8 10  2  0
  9 11  1  0
  9  7  2  0
 11  8  1  0
 13  5  1  0
 14 15  2  0
 14 16  1  0
 16 13  1  0
 17 16  1  0
 18 22  2  0
 18 21  1  0
 19 23  1  0
 19 14  1  0
 20 21  1  0
 20 24  1  0
 21 19  1  0
 24 25  1  0
 24 23  1  0
 26 25  1  0
 27 31  1  0
 27 18  1  0
 31 29  1  6
 31 30  1  0
 31 28  1  0
 32 35  1  0
 32 27  1  0
 33 32  1  0
 34 33  2  0
 36 37  1  1
 36 33  1  0
 38 39  1  0
 38 36  1  0
 39 36  1  0
 40 41  1  0
 40  1  1  0
 42 41  1  0
 43 46  2  0
 43 47  1  0
 44 48  1  0
 44 42  2  0
 45 42  1  0
 45 49  1  0
 46 44  1  0
 47 45  2  0
 50 46  1  0
 51 47  1  0
 52 57  1  0
 52 43  1  0
 53 52  1  0
 54 55  1  0
 54 53  1  0
 55 56  1  0
 56 57  1  0
 58 55  1  0
 59 58  1  0
 60 59  2  0
 61 62  2  0
 61 60  1  0
 62 63  1  0
 63 64  1  0
 63 58  2  0
 64 65  1  0
 66 64  1  0
 67 60  1  0
 67 72  1  0
 68 67  2  0
 69 68  1  0
 69 70  2  0
 70 71  1  0
 71 72  2  0
 73 74  1  0
 73 68  1  0
M  ISO  4  40 101  41 101  43 100  52 100
M  END
>  <TORSDO>  (94) 
F 16

>  <SCORE>  (94) 
-14.647

>  <name>  (94) 
93

>  <ligand_id>  (94) 
93

>  <original_smiles>  (94) 
[H]Oc1c([H])c([H])c([H])c([H])c1-c1nnc(N([H])[H])c(N2C([H])([H])C([H])([H])N(c3c(Cl)c(Cl)c(C([H])([H])Oc4c([H])c(-c5sc([H])nc5C([H])([H])[H])c([H])c([H])c4C([H])([H])N([H])C(=O)C4([H])N(C(=O)C([H])(N([H])C(=O)C5(F)C([H])([H])C5([H])[H])C(C([H])([H])[H])(C([H])([H])[H])C([H])([H])[H])C([H])([H])C([H])(O[H])C4([H])[H])c(Cl)c3Cl)C([H])([H])C2([H])[H])c1[H]

>  <smiles>  (94) 
[H]Oc1c([H])c([H])c([H])c([H])c1-c1nnc(N([H])[H])c(N2C([H])([H])C([H])([H])N(c3c(Cl)c(Cl)c(C([H])([H])Oc4c([H])c(-c5sc([H])nc5C([H])([H])[H])c([H])c([H])c4C([H])([H])N([H])C(=O)C4([H])N(C(=O)C([H])(N([H])C(=O)C5(F)C([H])([H])C5([H])[H])C(C([H])([H])[H])(C([H])([H])[H])C([H])([H])[H])C([H])([H])C([H])(O[H])C4([H])[H])c(Cl)c3Cl)C([H])([H])C2([H])[H])c1[H]

$$$$
94:0:0
     RDKit          3D

 80 88  0  0  1  0  0  0  0  0999 V2000
  -38.5510   14.0560  -23.8500 O   0  0  0  0  0  0  0  0  0  0  0  0
  -37.3010   13.4960  -23.7000 C   0  0  0  0  0  0  0  0  0  0  0  0
  -36.6000   13.4200  -22.4670 C   0  0  0  0  0  3  0  0  0  0  0  0
  -35.3440   12.7830  -22.3750 C   0  0  0  0  0  0  0  0  0  0  0  0
  -35.4470   12.3240  -24.7720 C   0  0  0  0  0  3  0  0  0  0  0  0
  -36.7210   12.9320  -24.8570 C   0  0  0  0  0  0  0  0  0  0  0  0
  -34.7710   12.2470  -23.5430 C   0  0  0  0  0  3  0  0  0  0  0  0
  -35.1400   12.1460  -19.8820 C   0  0  0  0  0  0  0  0  0  0  0  0
  -32.9900   12.5520  -19.2990 C   0  0  0  0  0  3  0  0  0  0  0  0
  -34.6650   12.6290  -21.0850 C   0  0  0  0  0  0  0  0  0  0  0  0
  -34.1730   12.1080  -18.8740 N   0  0  0  0  0  0  0  0  0  0  0  0
  -32.9790   13.0790  -20.9690 S   0  0  0  0  0  0  0  0  0  0  0  0
  -36.5160   11.6580  -19.5520 C   0  0  0  0  0  1  0  0  0  0  0  0
  -37.4890   12.9580  -26.1820 C   0  0  0  0  0  2  0  0  0  0  0  0
  -36.1250   13.7060  -28.1110 C   0  0  0  0  0  0  0  0  0  0  0  0
  -36.4060   14.8990  -27.9740 O   0  0  0  0  0  0  0  0  0  0  0  0
  -36.6490   12.7410  -27.3550 N   0  0  0  0  0  0  0  0  0  0  0  0
  -36.3850   11.7860  -27.5580 H   0  0  0  0  0  0  0  0  0  0  0  0
  -36.0610   14.4060  -31.1390 C   0  0  0  0  0  0  0  0  0  0  0  0
  -35.0750   13.2570  -29.1430 C   0  0  0  0  0  3  0  0  0  0  0  0
  -33.6030   14.4750  -30.6240 C   0  0  0  0  0  2  0  0  0  0  0  0
  -34.9990   14.1160  -30.3430 N   0  0  0  0  0  0  0  0  0  0  0  0
  -37.1840   13.9320  -30.9280 O   0  0  0  0  0  0  0  0  0  0  0  0
  -33.6790   13.3160  -28.5050 C   0  0  0  0  0  2  0  0  0  0  0  0
  -32.7500   13.6670  -29.6500 C   0  0  0  0  0  3  0  0  0  0  0  0
  -32.3080   12.4890  -30.3080 O   0  0  0  0  0  0  0  0  0  0  0  0
  -33.0710   12.0120  -30.6190 H   0  0  0  0  0  0  0  0  0  0  0  0
  -35.8780   15.3140  -32.3840 C   0  0  0  0  0  3  0  0  0  0  0  0
  -35.6950   17.3960  -30.8630 C   0  0  0  0  0  1  0  0  0  0  0  0
  -35.8040   17.6650  -33.3280 C   0  0  0  0  0  1  0  0  0  0  0  0
  -37.8490   16.9760  -32.0620 C   0  0  0  0  0  1  0  0  0  0  0  0
  -36.3170   16.8060  -32.1520 C   0  0  1  0  0  0  0  0  0  0  0  0
  -36.6530   14.7120  -33.4800 N   0  0  0  0  0  0  0  0  0  0  0  0
  -36.1630   14.2040  -34.6190 C   0  0  0  0  0  0  0  0  0  0  0  0
  -34.9650   14.2630  -34.9030 O   0  0  0  0  0  0  0  0  0  0  0  0
  -37.6370   14.5560  -33.3080 H   0  0  0  0  0  0  0  0  0  0  0  0
  -37.1730   13.5550  -35.5280 C   0  0  1  0  0  0  0  0  0  0  0  0
  -38.4160   13.3650  -34.9460 F   0  0  0  0  0  0  0  0  0  0  0  0
  -37.1520   13.8750  -37.0060 C   0  0  0  0  0  2  0  0  0  0  0  0
  -36.7230   12.5080  -36.5250 C   0  0  0  0  0  2  0  0  0  0  0  0
  -39.1420   14.8260  -22.8040 C   0  0  0  0  0  2  0  0  0  0  0  0
  -39.7110   17.2980  -22.5510 C   0  0  0  0  0  3  0  0  0  0  0  0
  -37.2780   17.9170  -23.5290 C   0  0  0  0  0  3  0  0  0  0  0  0
  -38.7680   16.2970  -22.8780 C   0  0  0  0  0  0  0  0  0  0  0  0
  -38.2660   18.9260  -23.3260 C   0  0  0  0  0  0  0  0  0  0  0  0
  -39.7410   20.2950  -25.6290 C   0  0  0  0  0  2  0  0  0  0  0  0
  -37.2450   19.9460  -26.0630 C   0  0  0  0  0  2  0  0  0  0  0  0
  -39.3250   20.9120  -24.2770 C   0  0  0  0  0  2  0  0  0  0  0  0
  -36.9890   20.5400  -24.6590 C   0  0  0  0  0  2  0  0  0  0  0  0
  -38.6070   20.3930  -26.6740 C   0  0  0  0  0  3  0  0  0  0  0  0
  -37.5260   16.6090  -23.3210 N   0  0  0  0  0  0  0  0  0  0  0  0
  -39.4650   18.6060  -22.7740 N   0  0  0  0  0  0  0  0  0  0  0  0
  -38.1130   20.2630  -23.7690 N   0  0  0  0  0  0  0  0  0  0  0  0
  -40.0310   19.4110  -28.6580 N   0  0  0  0  0  0  0  0  0  0  0  0
  -39.9270   19.1880  -30.1210 C   0  0  0  0  0  2  0  0  0  0  0  0
  -41.2140   19.3770  -30.9130 C   0  0  0  0  0  2  0  0  0  0  0  0
  -42.2540   18.5890  -30.2890 N   0  0  0  0  0  0  0  0  0  0  0  0
  -42.6070   19.0050  -28.9350 C   0  0  0  0  0  2  0  0  0  0  0  0
  -41.4050   19.5210  -28.0760 C   0  0  0  0  0  2  0  0  0  0  0  0
  -38.8310   19.7190  -28.0440 C   0  0  0  0  0  3  0  0  0  0  0  0
  -37.6770   19.4720  -28.7180 N   0  0  0  0  0  0  0  0  0  0  0  0
  -36.8070   19.8910  -28.4120 H   0  0  0  0  0  0  0  0  0  0  0  0
  -37.6340   18.9300  -29.5720 H   0  0  0  0  0  0  0  0  0  0  0  0
  -43.2160   18.0130  -31.1500 C   0  0  0  0  0  0  0  0  0  0  0  0
  -44.5200   18.5320  -31.3130 C   0  0  0  0  0  3  0  0  0  0  0  0
  -45.4100   17.8850  -32.2160 C   0  0  0  0  0  0  0  0  0  0  0  0
  -44.9840   16.7930  -32.9130 N   0  0  0  0  0  0  0  0  0  0  0  0
  -43.7570   16.2920  -32.7710 N   0  0  0  0  0  0  0  0  0  0  0  0
  -42.8930   16.8690  -31.9140 C   0  0  0  0  0  0  0  0  0  0  0  0
  -41.6500   16.2600  -31.8000 N   0  0  0  0  0  0  0  0  0  0  0  0
  -40.9440   16.7780  -31.2990 H   0  0  0  0  0  0  0  0  0  0  0  0
  -41.3220   15.6860  -32.5630 H   0  0  0  0  0  0  0  0  0  0  0  0
  -46.8290   18.3260  -32.4620 C   0  0  0  0  0  0  0  0  0  0  0  0
  -47.7480   17.6460  -33.3290 C   0  0  0  0  0  0  0  0  0  0  0  0
  -49.0730   18.1040  -33.4950 C   0  0  0  0  0  3  0  0  0  0  0  0
  -49.5230   19.2450  -32.8230 C   0  0  0  0  0  3  0  0  0  0  0  0
  -48.6460   19.9370  -31.9790 C   0  0  0  0  0  3  0  0  0  0  0  0
  -47.3260   19.4800  -31.8020 C   0  0  0  0  0  3  0  0  0  0  0  0
  -47.4160   16.5330  -34.0440 O   0  0  0  0  0  0  0  0  0  0  0  0
  -46.4950   16.3160  -33.8930 H   0  0  0  0  0  0  0  0  0  0  0  0
  1  2  1  0
  1 41  1  0
  2  3  1  0
  3  4  2  0
  4 10  1  0
  5  7  2  0
  6  5  1  0
  6  2  2  0
  7  4  1  0
  8 13  1  0
  8 11  1  0
  9 11  2  0
 10 12  1  0
 10  8  2  0
 12  9  1  0
 14  6  1  0
 15 16  2  0
 15 17  1  0
 17 14  1  0
 18 17  1  0
 19 23  2  0
 19 22  1  0
 20 24  1  0
 20 15  1  0
 21 22  1  0
 21 25  1  0
 22 20  1  0
 25 26  1  0
 25 24  1  0
 27 26  1  0
 28 32  1  0
 28 19  1  0
 32 30  1  6
 32 31  1  0
 32 29  1  0
 33 36  1  0
 33 28  1  0
 34 33  1  0
 35 34  2  0
 37 38  1  1
 37 34  1  0
 39 40  1  0
 39 37  1  0
 40 37  1  0
 43 45  1  0
 43 51  2  0
 44 41  1  0
 44 42  2  0
 45 52  2  0
 46 48  1  0
 47 49  1  0
 48 53  1  0
 49 53  1  0
 50 60  1  0
 50 47  1  0
 50 46  1  0
 51 44  1  0
 52 42  1  0
 53 45  1  0
 54 59  1  0
 54 60  1  0
 55 54  1  0
 56 57  1  0
 56 55  1  0
 57 58  1  0
 58 59  1  0
 60 61  1  0
 61 62  1  0
 63 61  1  0
 64 57  1  0
 65 64  1  0
 66 65  2  0
 67 68  2  0
 67 66  1  0
 68 69  1  0
 69 70  1  0
 69 64  2  0
 70 71  1  0
 72 70  1  0
 73 66  1  0
 73 78  1  0
 74 73  2  0
 75 74  1  0
 75 76  2  0
 76 77  1  0
 77 78  2  0
 79 80  1  0
 79 74  1  0
M  ISO  4   1 101  41 101  54 100  60 100
M  END
>  <TORSDO>  (95) 
F 16

>  <SCORE>  (95) 
-14.884

>  <name>  (95) 
94

>  <ligand_id>  (95) 
94

>  <original_smiles>  (95) 
[H]Oc1c([H])c([H])c([H])c([H])c1-c1nnc(N([H])[H])c(N2C([H])([H])C([H])([H])N(C(=[N+]([H])[H])C3([H])C([H])([H])C([H])([H])N(c4nc([H])c(C([H])([H])Oc5c([H])c(-c6sc([H])nc6C([H])([H])[H])c([H])c([H])c5C([H])([H])N([H])C(=O)C5([H])N(C(=O)C([H])(N([H])C(=O)C6(F)C([H])([H])C6([H])[H])C(C([H])([H])[H])(C([H])([H])[H])C([H])([H])[H])C([H])([H])C([H])(O[H])C5([H])[H])nc4[H])C([H])([H])C3([H])[H])C([H])([H])C2([H])[H])c1[H]

>  <smiles>  (95) 
[H]Oc1c([H])c([H])c([H])c([H])c1-c1nnc(N([H])[H])c(N2C([H])([H])C([H])([H])N(C(=[N+]([H])[H])C3([H])C([H])([H])C([H])([H])N(c4nc([H])c(C([H])([H])Oc5c([H])c(-c6sc([H])nc6C([H])([H])[H])c([H])c([H])c5C([H])([H])N([H])C(=O)C5([H])N(C(=O)C([H])(N([H])C(=O)C6(F)C([H])([H])C6([H])[H])C(C([H])([H])[H])(C([H])([H])[H])C([H])([H])[H])C([H])([H])C([H])(O[H])C5([H])[H])nc4[H])C([H])([H])C3([H])[H])C([H])([H])C2([H])[H])c1[H]

$$$$
95:0:0
     RDKit          3D

 76 84  0  0  1  0  0  0  0  0999 V2000
  -37.3890   13.4900  -23.7140 C   0  0  0  0  0  0  0  0  0  0  0  0
  -36.7090   13.3860  -22.4830 C   0  0  0  0  0  3  0  0  0  0  0  0
  -35.4290   12.8030  -22.4010 C   0  0  0  0  0  0  0  0  0  0  0  0
  -35.5320   12.3600  -24.8050 C   0  0  0  0  0  3  0  0  0  0  0  0
  -36.8180   12.9430  -24.8850 C   0  0  0  0  0  0  0  0  0  0  0  0
  -34.8440   12.3040  -23.5810 C   0  0  0  0  0  3  0  0  0  0  0  0
  -35.2040   12.2370  -19.8960 C   0  0  0  0  0  0  0  0  0  0  0  0
  -33.0420   12.6340  -19.3500 C   0  0  0  0  0  3  0  0  0  0  0  0
  -34.7360   12.6790  -21.1180 C   0  0  0  0  0  0  0  0  0  0  0  0
  -34.2260   12.2140  -18.8990 N   0  0  0  0  0  0  0  0  0  0  0  0
  -33.0410   13.1040  -21.0370 S   0  0  0  0  0  0  0  0  0  0  0  0
  -36.5810   11.7670  -19.5370 C   0  0  0  0  0  1  0  0  0  0  0  0
  -37.5980   12.9490  -26.2020 C   0  0  0  0  0  2  0  0  0  0  0  0
  -36.2190   13.7260  -28.1050 C   0  0  0  0  0  0  0  0  0  0  0  0
  -36.4740   14.9200  -27.9340 O   0  0  0  0  0  0  0  0  0  0  0  0
  -36.7620   12.7490  -27.3770 N   0  0  0  0  0  0  0  0  0  0  0  0
  -36.5200   11.7950  -27.6050 H   0  0  0  0  0  0  0  0  0  0  0  0
  -36.1590   14.4680  -31.1240 C   0  0  0  0  0  0  0  0  0  0  0  0
  -35.1780   13.2840  -29.1480 C   0  0  0  0  0  3  0  0  0  0  0  0
  -33.7030   14.5060  -30.6170 C   0  0  0  0  0  2  0  0  0  0  0  0
  -35.0990   14.1560  -30.3350 N   0  0  0  0  0  0  0  0  0  0  0  0
  -37.2850   14.0000  -30.9130 O   0  0  0  0  0  0  0  0  0  0  0  0
  -33.7780   13.3200  -28.5150 C   0  0  0  0  0  2  0  0  0  0  0  0
  -32.8500   13.6770  -29.6580 C   0  0  0  0  0  3  0  0  0  0  0  0
  -32.4210   12.5060  -30.3360 O   0  0  0  0  0  0  0  0  0  0  0  0
  -33.1880   12.0430  -30.6550 H   0  0  0  0  0  0  0  0  0  0  0  0
  -35.9740   15.3970  -32.3530 C   0  0  0  0  0  3  0  0  0  0  0  0
  -36.7300   14.8010  -33.4680 N   0  0  0  0  0  0  0  0  0  0  0  0
  -36.2180   14.2680  -34.5860 C   0  0  0  0  0  0  0  0  0  0  0  0
  -35.0100   14.2950  -34.8330 O   0  0  0  0  0  0  0  0  0  0  0  0
  -37.7230   14.6780  -33.3250 H   0  0  0  0  0  0  0  0  0  0  0  0
  -37.2140   13.6320  -35.5200 C   0  0  1  0  0  0  0  0  0  0  0  0
  -38.4810   13.4900  -34.9770 F   0  0  0  0  0  0  0  0  0  0  0  0
  -37.1320   13.9210  -37.0000 C   0  0  0  0  0  2  0  0  0  0  0  0
  -36.7620   12.5510  -36.4790 C   0  0  0  0  0  2  0  0  0  0  0  0
  -35.7700   17.4870  -30.8440 C   0  0  0  0  0  1  0  0  0  0  0  0
  -35.9970   17.7490  -33.3020 C   0  0  0  0  0  1  0  0  0  0  0  0
  -37.9640   17.0150  -31.9360 C   0  0  0  0  0  1  0  0  0  0  0  0
  -36.4340   16.8810  -32.1030 C   0  0  1  0  0  0  0  0  0  0  0  0
  -38.5900   14.1520  -23.7680 O   0  0  0  0  0  0  0  0  0  0  0  0
  -38.4240   15.5180  -24.1440 C   0  0  0  0  0  2  0  0  0  0  0  0
  -39.1590   17.2910  -22.4290 C   0  0  0  0  0  2  0  0  0  0  0  0
  -38.6900   18.7380  -22.5970 C   0  0  0  0  0  2  0  0  0  0  0  0
  -36.9150   17.4740  -23.2920 C   0  0  0  0  0  2  0  0  0  0  0  0
  -38.0060   16.4360  -22.9570 C   0  0  0  0  0  3  0  0  0  0  0  0
  -37.6080   18.7260  -23.5890 N   0  0  0  0  0  0  0  0  0  0  0  0
  -40.2460   19.2120  -28.3910 N   0  0  0  0  0  0  0  0  0  0  0  0
  -39.8630   19.4370  -29.7860 C   0  0  0  0  0  2  0  0  0  0  0  0
  -41.0980   19.4430  -30.7410 C   0  0  0  0  0  2  0  0  0  0  0  0
  -42.2090   18.6520  -30.1990 N   0  0  0  0  0  0  0  0  0  0  0  0
  -42.6710   18.9510  -28.8480 C   0  0  0  0  0  2  0  0  0  0  0  0
  -41.5870   19.6210  -27.9870 C   0  0  0  0  0  2  0  0  0  0  0  0
  -37.7220   18.0800  -25.9910 C   0  0  0  0  0  3  0  0  0  0  0  0
  -38.3860   18.2040  -27.2210 C   0  0  0  0  0  3  0  0  0  0  0  0
  -38.0080   18.9780  -24.9290 C   0  0  0  0  0  0  0  0  0  0  0  0
  -38.7580   20.1320  -25.2930 C   0  0  0  0  0  0  0  0  0  0  0  0
  -39.2930   19.2560  -27.3730 C   0  0  0  0  0  0  0  0  0  0  0  0
  -38.9010   21.3560  -24.4040 C   0  0  0  0  0  1  0  0  0  0  0  0
  -39.4040   20.2450  -26.4680 N   0  0  0  0  0  0  0  0  0  0  0  0
  -43.1230   18.0540  -31.0900 C   0  0  0  0  0  0  0  0  0  0  0  0
  -44.4280   18.5520  -31.2860 C   0  0  0  0  0  3  0  0  0  0  0  0
  -45.3040   17.8660  -32.1680 C   0  0  0  0  0  0  0  0  0  0  0  0
  -44.8630   16.7470  -32.8130 N   0  0  0  0  0  0  0  0  0  0  0  0
  -43.6340   16.2570  -32.6320 N   0  0  0  0  0  0  0  0  0  0  0  0
  -42.7800   16.8820  -31.7960 C   0  0  0  0  0  0  0  0  0  0  0  0
  -41.5450   16.2820  -31.6130 N   0  0  0  0  0  0  0  0  0  0  0  0
  -41.0990   16.6070  -30.7640 H   0  0  0  0  0  0  0  0  0  0  0  0
  -41.5160   15.2820  -31.7420 H   0  0  0  0  0  0  0  0  0  0  0  0
  -46.7210   18.2940  -32.4320 C   0  0  0  0  0  0  0  0  0  0  0  0
  -47.6320   17.5910  -33.2860 C   0  0  0  0  0  0  0  0  0  0  0  0
  -48.9520   18.0430  -33.4780 C   0  0  0  0  0  3  0  0  0  0  0  0
  -49.4150   19.2000  -32.8320 C   0  0  0  0  0  3  0  0  0  0  0  0
  -48.5450   19.9150  -31.9960 C   0  0  0  0  0  3  0  0  0  0  0  0
  -47.2260   19.4670  -31.8070 C   0  0  0  0  0  3  0  0  0  0  0  0
  -47.2950   16.4520  -33.9620 O   0  0  0  0  0  0  0  0  0  0  0  0
  -46.3800   16.2240  -33.7930 H   0  0  0  0  0  0  0  0  0  0  0  0
  1  2  1  0
  2  3  2  0
  3  9  1  0
  4  6  2  0
  5  4  1  0
  5  1  2  0
  6  3  1  0
  7 12  1  0
  7 10  1  0
  8 10  2  0
  9 11  1  0
  9  7  2  0
 11  8  1  0
 13  5  1  0
 14 15  2  0
 14 16  1  0
 16 13  1  0
 17 16  1  0
 18 22  2  0
 18 21  1  0
 19 23  1  0
 19 14  1  0
 20 21  1  0
 20 24  1  0
 21 19  1  0
 24 25  1  0
 24 23  1  0
 26 25  1  0
 27 39  1  0
 27 18  1  0
 28 31  1  0
 28 27  1  0
 29 28  1  0
 30 29  2  0
 32 33  1  1
 32 29  1  0
 34 35  1  0
 34 32  1  0
 35 32  1  0
 39 37  1  6
 39 38  1  0
 39 36  1  0
 40  1  1  0
 41 40  1  0
 43 42  1  0
 44 45  1  0
 45 41  1  0
 45 42  1  0
 46 44  1  0
 46 43  1  0
 47 52  1  0
 47 57  1  0
 48 47  1  0
 49 50  1  0
 49 48  1  0
 50 51  1  0
 51 52  1  0
 53 55  1  0
 54 53  2  0
 55 46  1  0
 56 55  2  0
 56 58  1  0
 57 54  1  0
 57 59  2  0
 59 56  1  0
 60 50  1  0
 61 60  1  0
 62 61  2  0
 63 64  2  0
 63 62  1  0
 64 65  1  0
 65 66  1  0
 65 60  2  0
 66 67  1  0
 68 66  1  0
 69 62  1  0
 69 74  1  0
 70 69  2  0
 71 70  1  0
 71 72  2  0
 72 73  1  0
 73 74  2  0
 75 76  1  0
 75 70  1  0
M  ISO  4  40 101  41 101  47 100  57 100
M  END
>  <TORSDO>  (96) 
F 16

>  <SCORE>  (96) 
-14.628

>  <name>  (96) 
95

>  <ligand_id>  (96) 
95

>  <original_smiles>  (96) 
[H]Oc1c([H])c([H])c([H])c([H])c1-c1nnc(N([H])[H])c(N2C([H])([H])C([H])([H])N(c3nc(C([H])([H])[H])c(N4C([H])([H])C([H])([H])C([H])(C([H])([H])Oc5c([H])c(-c6sc([H])nc6C([H])([H])[H])c([H])c([H])c5C([H])([H])N([H])C(=O)C5([H])N(C(=O)C([H])(N([H])C(=O)C6(F)C([H])([H])C6([H])[H])C(C([H])([H])[H])(C([H])([H])[H])C([H])([H])[H])C([H])([H])C([H])(O[H])C5([H])[H])C4([H])[H])c([H])c3[H])C([H])([H])C2([H])[H])c1[H]

>  <smiles>  (96) 
[H]Oc1c([H])c([H])c([H])c([H])c1-c1nnc(N([H])[H])c(N2C([H])([H])C([H])([H])N(c3nc(C([H])([H])[H])c(N4C([H])([H])C([H])([H])C([H])(C([H])([H])Oc5c([H])c(-c6sc([H])nc6C([H])([H])[H])c([H])c([H])c5C([H])([H])N([H])C(=O)C5([H])N(C(=O)C([H])(N([H])C(=O)C6(F)C([H])([H])C6([H])[H])C(C([H])([H])[H])(C([H])([H])[H])C([H])([H])[H])C([H])([H])C([H])(O[H])C5([H])[H])C4([H])[H])c([H])c3[H])C([H])([H])C2([H])[H])c1[H]

$$$$
96:0:0
     RDKit          3D

 76 84  0  0  1  0  0  0  0  0999 V2000
  -37.3610   13.5830  -23.7670 C   0  0  0  0  0  0  0  0  0  0  0  0
  -36.6660   13.4990  -22.5370 C   0  0  0  0  0  3  0  0  0  0  0  0
  -35.3970   12.8910  -22.4530 C   0  0  0  0  0  0  0  0  0  0  0  0
  -35.5040   12.4380  -24.8540 C   0  0  0  0  0  3  0  0  0  0  0  0
  -36.7850   13.0280  -24.9330 C   0  0  0  0  0  0  0  0  0  0  0  0
  -34.8170   12.3780  -23.6300 C   0  0  0  0  0  3  0  0  0  0  0  0
  -35.1770   12.2790  -19.9570 C   0  0  0  0  0  0  0  0  0  0  0  0
  -33.0240   12.6980  -19.3940 C   0  0  0  0  0  3  0  0  0  0  0  0
  -34.7100   12.7530  -21.1680 C   0  0  0  0  0  0  0  0  0  0  0  0
  -34.2020   12.2520  -18.9580 N   0  0  0  0  0  0  0  0  0  0  0  0
  -33.0240   13.2050  -21.0710 S   0  0  0  0  0  0  0  0  0  0  0  0
  -36.5490   11.7810  -19.6160 C   0  0  0  0  0  1  0  0  0  0  0  0
  -37.5620   13.0540  -26.2490 C   0  0  0  0  0  2  0  0  0  0  0  0
  -36.1940   13.7650  -28.1870 C   0  0  0  0  0  0  0  0  0  0  0  0
  -36.4500   14.9630  -28.0510 O   0  0  0  0  0  0  0  0  0  0  0  0
  -36.7360   12.8100  -27.4250 N   0  0  0  0  0  0  0  0  0  0  0  0
  -36.4970   11.8490  -27.6250 H   0  0  0  0  0  0  0  0  0  0  0  0
  -36.1220   14.4670  -31.2130 C   0  0  0  0  0  0  0  0  0  0  0  0
  -35.1550   13.2980  -29.2220 C   0  0  0  0  0  3  0  0  0  0  0  0
  -33.6660   14.4940  -30.7020 C   0  0  0  0  0  2  0  0  0  0  0  0
  -35.0660   14.1550  -30.4190 N   0  0  0  0  0  0  0  0  0  0  0  0
  -37.2520   14.0090  -31.0010 O   0  0  0  0  0  0  0  0  0  0  0  0
  -33.7540   13.3310  -28.5870 C   0  0  0  0  0  2  0  0  0  0  0  0
  -32.8220   13.6710  -29.7310 C   0  0  0  0  0  3  0  0  0  0  0  0
  -32.3970   12.4900  -30.3940 O   0  0  0  0  0  0  0  0  0  0  0  0
  -33.1670   12.0250  -30.7060 H   0  0  0  0  0  0  0  0  0  0  0  0
  -35.9270   15.3790  -32.4540 C   0  0  0  0  0  3  0  0  0  0  0  0
  -35.7670   17.4800  -30.9540 C   0  0  0  0  0  1  0  0  0  0  0  0
  -35.9140   17.7240  -33.4200 C   0  0  0  0  0  1  0  0  0  0  0  0
  -37.9270   17.0000  -32.1150 C   0  0  0  0  0  1  0  0  0  0  0  0
  -36.3930   16.8640  -32.2290 C   0  0  1  0  0  0  0  0  0  0  0  0
  -36.6710   14.7660  -33.5670 N   0  0  0  0  0  0  0  0  0  0  0  0
  -36.1500   14.2370  -34.6820 C   0  0  0  0  0  0  0  0  0  0  0  0
  -34.9410   14.2840  -34.9280 O   0  0  0  0  0  0  0  0  0  0  0  0
  -37.6620   14.6250  -33.4250 H   0  0  0  0  0  0  0  0  0  0  0  0
  -37.1330   13.5810  -35.6140 C   0  0  1  0  0  0  0  0  0  0  0  0
  -38.3970   13.4190  -35.0720 F   0  0  0  0  0  0  0  0  0  0  0  0
  -37.0550   13.8670  -37.0960 C   0  0  0  0  0  2  0  0  0  0  0  0
  -36.6610   12.5060  -36.5710 C   0  0  0  0  0  2  0  0  0  0  0  0
  -38.6220   14.1240  -23.8450 O   0  0  0  0  0  0  0  0  0  0  0  0
  -38.8360   15.3720  -23.1870 C   0  0  0  0  0  2  0  0  0  0  0  0
  -40.3040   17.5190  -25.9480 C   0  0  0  0  0  3  0  0  0  0  0  0
  -40.2070   16.5680  -24.9260 C   0  0  0  0  0  3  0  0  0  0  0  0
  -39.2050   18.3670  -26.2220 C   0  0  0  0  0  0  0  0  0  0  0  0
  -38.0210   18.1690  -25.4620 C   0  0  0  0  0  0  0  0  0  0  0  0
  -39.0050   16.4650  -24.2180 C   0  0  0  0  0  0  0  0  0  0  0  0
  -37.7610   19.3930  -27.9530 C   0  0  0  0  0  2  0  0  0  0  0  0
  -39.1970   19.3990  -27.3630 C   0  0  0  0  0  3  0  0  0  0  0  0
  -36.6870   18.8450  -25.8360 C   0  0  0  0  0  3  0  0  0  0  0  0
  -36.0570   19.5130  -24.5960 C   0  0  0  0  0  1  0  0  0  0  0  0
  -35.4770   20.0290  -27.5890 C   0  0  0  0  0  1  0  0  0  0  0  0
  -37.9330   17.2350  -24.4870 N   0  0  0  0  0  0  0  0  0  0  0  0
  -36.7770   19.8040  -26.9560 N   0  0  0  0  0  0  0  0  0  0  0  0
  -40.2760   19.1870  -28.3410 N   0  0  0  0  0  0  0  0  0  0  0  0
  -40.0000   19.6430  -29.7140 C   0  0  0  0  0  2  0  0  0  0  0  0
  -41.2140   19.5500  -30.6810 C   0  0  0  0  0  2  0  0  0  0  0  0
  -42.2800   18.7130  -30.1280 N   0  0  0  0  0  0  0  0  0  0  0  0
  -42.7080   18.9670  -28.7480 C   0  0  0  0  0  2  0  0  0  0  0  0
  -41.5980   19.7060  -27.9540 C   0  0  0  0  0  2  0  0  0  0  0  0
  -43.1400   18.0460  -31.0240 C   0  0  0  0  0  0  0  0  0  0  0  0
  -44.4640   18.4700  -31.2500 C   0  0  0  0  0  3  0  0  0  0  0  0
  -45.2740   17.7480  -32.1660 C   0  0  0  0  0  0  0  0  0  0  0  0
  -44.7580   16.6590  -32.8050 N   0  0  0  0  0  0  0  0  0  0  0  0
  -43.5100   16.2330  -32.5910 N   0  0  0  0  0  0  0  0  0  0  0  0
  -42.7150   16.8980  -31.7290 C   0  0  0  0  0  0  0  0  0  0  0  0
  -41.4500   16.3730  -31.5270 N   0  0  0  0  0  0  0  0  0  0  0  0
  -41.0210   16.7430  -30.6860 H   0  0  0  0  0  0  0  0  0  0  0  0
  -41.3570   15.3750  -31.6420 H   0  0  0  0  0  0  0  0  0  0  0  0
  -46.6990   18.1090  -32.4770 C   0  0  0  0  0  0  0  0  0  0  0  0
  -47.5530   17.3620  -33.3540 C   0  0  0  0  0  0  0  0  0  0  0  0
  -48.8880   17.7510  -33.5830 C   0  0  0  0  0  3  0  0  0  0  0  0
  -49.4220   18.8850  -32.9550 C   0  0  0  0  0  3  0  0  0  0  0  0
  -48.6120   19.6400  -32.0980 C   0  0  0  0  0  3  0  0  0  0  0  0
  -47.2770   19.2570  -31.8700 C   0  0  0  0  0  3  0  0  0  0  0  0
  -47.1420   16.2410  -34.0200 O   0  0  0  0  0  0  0  0  0  0  0  0
  -46.2220   16.0560  -33.8260 H   0  0  0  0  0  0  0  0  0  0  0  0
  1  2  1  0
  2  3  2  0
  3  9  1  0
  4  6  2  0
  5  4  1  0
  5  1  2  0
  6  3  1  0
  7 12  1  0
  7 10  1  0
  8 10  2  0
  9 11  1  0
  9  7  2  0
 11  8  1  0
 13  5  1  0
 14 15  2  0
 14 16  1  0
 16 13  1  0
 17 16  1  0
 18 22  2  0
 18 21  1  0
 19 23  1  0
 19 14  1  0
 20 21  1  0
 20 24  1  0
 21 19  1  0
 24 25  1  0
 24 23  1  0
 26 25  1  0
 27 31  1  0
 27 18  1  0
 31 29  1  6
 31 30  1  0
 31 28  1  0
 32 35  1  0
 32 27  1  0
 33 32  1  0
 34 33  2  0
 36 37  1  1
 36 33  1  0
 38 39  1  0
 38 36  1  0
 39 36  1  0
 40  1  1  0
 40 41  1  0
 42 43  1  0
 43 46  2  0
 44 42  2  0
 44 45  1  0
 45 52  2  0
 46 41  1  0
 47 53  1  0
 48 47  1  0
 48 44  1  0
 49 45  1  0
 49 50  1  0
 51 53  1  0
 52 46  1  0
 53 49  1  0
 54 55  1  0
 54 59  1  0
 54 48  1  0
 56 57  1  0
 56 55  1  0
 57 58  1  0
 58 59  1  0
 60 57  1  0
 61 60  1  0
 62 61  2  0
 63 64  2  0
 63 62  1  0
 64 65  1  0
 65 66  1  0
 65 60  2  0
 66 67  1  0
 68 66  1  0
 69 62  1  0
 69 74  1  0
 70 69  2  0
 71 70  1  0
 71 72  2  0
 72 73  1  0
 73 74  2  0
 75 76  1  0
 75 70  1  0
M  ISO  4  40 101  41 101  48 100  54 100
M  END
>  <TORSDO>  (97) 
F 16

>  <SCORE>  (97) 
-14.829

>  <name>  (97) 
96

>  <ligand_id>  (97) 
96

>  <original_smiles>  (97) 
[H]Oc1c([H])c([H])c([H])c([H])c1-c1nnc(N([H])[H])c(N2C([H])([H])C([H])([H])N(C3([H])c4c(nc(C([H])([H])Oc5c([H])c(-c6sc([H])nc6C([H])([H])[H])c([H])c([H])c5C([H])([H])N([H])C(=O)C5([H])N(C(=O)C([H])(N([H])C(=O)C6(F)C([H])([H])C6([H])[H])C(C([H])([H])[H])(C([H])([H])[H])C([H])([H])[H])C([H])([H])C([H])(O[H])C5([H])[H])c([H])c4[H])C([H])(C([H])([H])[H])N(C([H])([H])[H])C3([H])[H])C([H])([H])C2([H])[H])c1[H]

>  <smiles>  (97) 
[H]Oc1c([H])c([H])c([H])c([H])c1-c1nnc(N([H])[H])c(N2C([H])([H])C([H])([H])N(C3([H])c4c(nc(C([H])([H])Oc5c([H])c(-c6sc([H])nc6C([H])([H])[H])c([H])c([H])c5C([H])([H])N([H])C(=O)C5([H])N(C(=O)C([H])(N([H])C(=O)C6(F)C([H])([H])C6([H])[H])C(C([H])([H])[H])(C([H])([H])[H])C([H])([H])[H])C([H])([H])C([H])(O[H])C5([H])[H])c([H])c4[H])C([H])(C([H])([H])[H])N(C([H])([H])[H])C3([H])[H])C([H])([H])C2([H])[H])c1[H]

$$$$
97:0:0
     RDKit          3D

 82 90  0  0  1  0  0  0  0  0999 V2000
  -41.4670   17.1260  -26.5240 C   0  0  0  0  0  2  0  0  0  0  0  0
  -40.5980   18.1450  -26.1640 C   0  0  0  0  0  3  0  0  0  0  0  0
  -41.9320   16.3410  -25.4820 C   0  0  0  0  0  3  0  0  0  0  0  0
  -41.2270   17.9500  -24.0070 C   0  0  0  0  0  0  0  0  0  0  0  0
  -39.5370   14.8670  -25.7980 C   0  0  0  0  0  2  0  0  0  0  0  0
  -40.8500   14.5020  -26.5350 C   0  0  0  0  0  2  0  0  0  0  0  0
  -42.2130   14.0460  -24.5850 C   0  0  0  0  0  2  0  0  0  0  0  0
  -40.8820   13.5420  -23.9280 C   0  0  0  0  0  3  0  0  0  0  0  0
  -39.6370   14.3710  -24.3430 C   0  0  0  0  0  3  0  0  0  0  0  0
  -40.6760   12.0320  -24.1010 C   0  0  0  0  0  1  0  0  0  0  0  0
  -40.4610   18.5830  -24.8990 N   0  0  0  0  0  0  0  0  0  0  0  0
  -41.9100   16.8220  -24.2260 N   0  0  0  0  0  2  0  0  0  0  0  0
  -42.0030   14.9460  -25.7280 N   0  0  0  0  0  0  0  0  0  0  0  0
  -40.4110   19.3190  -28.2600 N   0  0  0  0  0  0  0  0  0  0  0  0
  -39.9720   19.5480  -29.6550 C   0  0  0  0  0  2  0  0  0  0  0  0
  -41.1770   19.4340  -30.6540 C   0  0  0  0  0  2  0  0  0  0  0  0
  -42.2810   18.6280  -30.1120 N   0  0  0  0  0  0  0  0  0  0  0  0
  -42.8130   19.0330  -28.8150 C   0  0  0  0  0  2  0  0  0  0  0  0
  -41.7720   19.7960  -27.9870 C   0  0  0  0  0  2  0  0  0  0  0  0
  -39.7760   18.7000  -27.2400 C   0  0  0  0  0  3  0  0  0  0  0  0
  -38.4650   18.4270  -27.2440 N   0  0  0  0  0  0  0  0  0  0  0  0
  -37.8340   18.7420  -27.9600 H   0  0  0  0  0  0  0  0  0  0  0  0
  -38.0850   18.0020  -26.4130 H   0  0  0  0  0  0  0  0  0  0  0  0
  -43.1930   18.0270  -31.0170 C   0  0  0  0  0  0  0  0  0  0  0  0
  -44.4910   18.5330  -31.2490 C   0  0  0  0  0  3  0  0  0  0  0  0
  -45.3630   17.8480  -32.1380 C   0  0  0  0  0  0  0  0  0  0  0  0
  -44.9180   16.7260  -32.7710 N   0  0  0  0  0  0  0  0  0  0  0  0
  -43.6930   16.2310  -32.5700 N   0  0  0  0  0  0  0  0  0  0  0  0
  -42.8510   16.8430  -31.7100 C   0  0  0  0  0  0  0  0  0  0  0  0
  -41.6260   16.2330  -31.5110 N   0  0  0  0  0  0  0  0  0  0  0  0
  -40.9400   16.8060  -31.0460 H   0  0  0  0  0  0  0  0  0  0  0  0
  -41.2780   15.6350  -32.2490 H   0  0  0  0  0  0  0  0  0  0  0  0
  -46.7740   18.2800  -32.4330 C   0  0  0  0  0  0  0  0  0  0  0  0
  -47.6800   17.5710  -33.2880 C   0  0  0  0  0  0  0  0  0  0  0  0
  -48.9950   18.0270  -33.5050 C   0  0  0  0  0  3  0  0  0  0  0  0
  -49.4600   19.1970  -32.8860 C   0  0  0  0  0  3  0  0  0  0  0  0
  -48.5990   19.9160  -32.0480 C   0  0  0  0  0  3  0  0  0  0  0  0
  -47.2840   19.4650  -31.8330 C   0  0  0  0  0  3  0  0  0  0  0  0
  -47.3430   16.4210  -33.9440 O   0  0  0  0  0  0  0  0  0  0  0  0
  -46.4330   16.1830  -33.7690 H   0  0  0  0  0  0  0  0  0  0  0  0
  -40.8320   17.6980  -21.4660 C   0  0  0  0  0  1  0  0  0  0  0  0
  -41.3540   18.5740  -22.6190 C   0  0  0  0  0  2  0  0  0  0  0  0
  -38.5100   14.2400  -23.5220 O   0  0  0  0  0  0  0  0  0  0  0  0
  -37.3480   13.5220  -23.6760 C   0  0  0  0  0  0  0  0  0  0  0  0
  -36.6230   13.5080  -22.4640 C   0  0  0  0  0  3  0  0  0  0  0  0
  -35.3750   12.8700  -22.3310 C   0  0  0  0  0  0  0  0  0  0  0  0
  -35.5010   12.2920  -24.6900 C   0  0  0  0  0  3  0  0  0  0  0  0
  -36.7930   12.8560  -24.8110 C   0  0  0  0  0  0  0  0  0  0  0  0
  -34.8020   12.2980  -23.4760 C   0  0  0  0  0  3  0  0  0  0  0  0
  -35.1820   12.3250  -19.8150 C   0  0  0  0  0  0  0  0  0  0  0  0
  -33.0250   12.7420  -19.2590 C   0  0  0  0  0  3  0  0  0  0  0  0
  -34.7050   12.7610  -21.0360 C   0  0  0  0  0  0  0  0  0  0  0  0
  -34.2090   12.3170  -18.8130 N   0  0  0  0  0  0  0  0  0  0  0  0
  -33.0140   13.1970  -20.9500 S   0  0  0  0  0  0  0  0  0  0  0  0
  -36.5600   11.8540  -19.4670 C   0  0  0  0  0  1  0  0  0  0  0  0
  -37.5130   12.5230  -26.1130 C   0  0  0  0  0  2  0  0  0  0  0  0
  -36.2650   13.6340  -28.0520 C   0  0  0  0  0  0  0  0  0  0  0  0
  -36.5970   14.8100  -27.8810 O   0  0  0  0  0  0  0  0  0  0  0  0
  -36.7140   12.5990  -27.3340 N   0  0  0  0  0  0  0  0  0  0  0  0
  -36.3640   11.7010  -27.6420 H   0  0  0  0  0  0  0  0  0  0  0  0
  -36.1540   14.4210  -31.0740 C   0  0  0  0  0  0  0  0  0  0  0  0
  -35.1930   13.2460  -29.0890 C   0  0  0  0  0  3  0  0  0  0  0  0
  -33.7040   14.4770  -30.5350 C   0  0  0  0  0  2  0  0  0  0  0  0
  -35.1050   14.1230  -30.2690 N   0  0  0  0  0  0  0  0  0  0  0  0
  -37.2790   13.9460  -30.8800 O   0  0  0  0  0  0  0  0  0  0  0  0
  -33.8040   13.2860  -28.4330 C   0  0  0  0  0  2  0  0  0  0  0  0
  -32.8630   13.6500  -29.5650 C   0  0  0  0  0  3  0  0  0  0  0  0
  -32.4200   12.4820  -30.2370 O   0  0  0  0  0  0  0  0  0  0  0  0
  -33.1840   12.0180  -30.5610 H   0  0  0  0  0  0  0  0  0  0  0  0
  -35.9570   15.3520  -32.3020 C   0  0  0  0  0  3  0  0  0  0  0  0
  -35.8650   17.4260  -30.7680 C   0  0  0  0  0  1  0  0  0  0  0  0
  -35.9680   17.7100  -33.2330 C   0  0  0  0  0  1  0  0  0  0  0  0
  -37.9950   16.9300  -31.9790 C   0  0  0  0  0  1  0  0  0  0  0  0
  -36.4550   16.8240  -32.0660 C   0  0  1  0  0  0  0  0  0  0  0  0
  -36.6720   14.7370  -33.4310 N   0  0  0  0  0  0  0  0  0  0  0  0
  -36.1230   14.2300  -34.5460 C   0  0  0  0  0  0  0  0  0  0  0  0
  -34.9130   14.3000  -34.7700 O   0  0  0  0  0  0  0  0  0  0  0  0
  -37.6620   14.5740  -33.3040 H   0  0  0  0  0  0  0  0  0  0  0  0
  -37.0800   13.5670  -35.5040 C   0  0  1  0  0  0  0  0  0  0  0  0
  -38.3520   13.3840  -34.9890 F   0  0  0  0  0  0  0  0  0  0  0  0
  -36.9760   13.8700  -36.9800 C   0  0  0  0  0  2  0  0  0  0  0  0
  -36.5750   12.5070  -36.4600 C   0  0  0  0  0  2  0  0  0  0  0  0
  1  2  1  0
  2 20  1  0
  2 11  1  0
  3  1  1  0
  3 12  1  0
  4 42  1  0
  5  9  1  0
  6  5  1  0
  7  8  1  0
  8 10  1  0
  9  8  1  0
  9 43  1  0
 11  4  2  0
 12  4  1  0
 13  6  1  0
 13  3  1  0
 13  7  1  0
 14 19  1  0
 14 20  1  0
 15 14  1  0
 16 17  1  0
 16 15  1  0
 17 18  1  0
 18 19  1  0
 20 21  1  0
 21 23  1  0
 22 21  1  0
 24 17  1  0
 25 24  1  0
 26 25  2  0
 27 28  2  0
 27 26  1  0
 28 29  1  0
 29 30  1  0
 29 24  2  0
 30 31  1  0
 32 30  1  0
 33 26  1  0
 33 38  1  0
 34 33  2  0
 35 34  1  0
 35 36  2  0
 36 37  1  0
 37 38  2  0
 39 40  1  0
 39 34  1  0
 42 41  1  0
 44 43  1  0
 44 45  1  0
 45 46  2  0
 46 52  1  0
 47 49  2  0
 48 47  1  0
 48 44  2  0
 49 46  1  0
 50 55  1  0
 50 53  1  0
 51 53  2  0
 52 54  1  0
 52 50  2  0
 54 51  1  0
 56 48  1  0
 57 58  2  0
 57 59  1  0
 59 56  1  0
 60 59  1  0
 61 65  2  0
 61 64  1  0
 62 66  1  0
 62 57  1  0
 63 64  1  0
 63 67  1  0
 64 62  1  0
 67 68  1  0
 67 66  1  0
 69 68  1  0
 70 74  1  0
 70 61  1  0
 74 72  1  6
 74 73  1  0
 74 71  1  0
 75 78  1  0
 75 70  1  0
 76 75  1  0
 77 76  2  0
 79 80  1  1
 79 76  1  0
 81 82  1  0
 81 79  1  0
 82 79  1  0
M  ISO  4   9 101  14 100  20 100  43 101
M  END
>  <TORSDO>  (98) 
F 16

>  <SCORE>  (98) 
-14.817

>  <name>  (98) 
97

>  <ligand_id>  (98) 
97

>  <original_smiles>  (98) 
[H]Oc1c([H])c([H])c([H])c([H])c1-c1nnc(N([H])[H])c(N2C([H])([H])C([H])([H])N(C(c3nc(C([H])([H])C([H])([H])[H])nc(N4C([H])([H])C([H])([H])C([H])(Oc5c([H])c(-c6sc([H])nc6C([H])([H])[H])c([H])c([H])c5C([H])([H])N([H])C(=O)C5([H])N(C(=O)C([H])(N([H])C(=O)C6(F)C([H])([H])C6([H])[H])C(C([H])([H])[H])(C([H])([H])[H])C([H])([H])[H])C([H])([H])C([H])(O[H])C5([H])[H])C([H])(C([H])([H])[H])C4([H])[H])c3[H])=[N+]([H])[H])C([H])([H])C2([H])[H])c1[H]

>  <smiles>  (98) 
[H]Oc1c([H])c([H])c([H])c([H])c1-c1nnc(N([H])[H])c(N2C([H])([H])C([H])([H])N(C(c3nc(C([H])([H])C([H])([H])[H])nc(N4C([H])([H])C([H])([H])C([H])(Oc5c([H])c(-c6sc([H])nc6C([H])([H])[H])c([H])c([H])c5C([H])([H])N([H])C(=O)C5([H])N(C(=O)C([H])(N([H])C(=O)C6(F)C([H])([H])C6([H])[H])C(C([H])([H])[H])(C([H])([H])[H])C([H])([H])[H])C([H])([H])C([H])(O[H])C5([H])[H])C([H])(C([H])([H])[H])C4([H])[H])c3[H])=[N+]([H])[H])C([H])([H])C2([H])[H])c1[H]

$$$$
98:0:0
     RDKit          3D

 78 86  0  0  1  0  0  0  0  0999 V2000
  -37.3900   13.4950  -23.7130 C   0  0  0  0  0  0  0  0  0  0  0  0
  -36.7060   13.4070  -22.4790 C   0  0  0  0  0  3  0  0  0  0  0  0
  -35.4430   12.7830  -22.3840 C   0  0  0  0  0  0  0  0  0  0  0  0
  -35.5380   12.3400  -24.7890 C   0  0  0  0  0  3  0  0  0  0  0  0
  -36.8130   12.9440  -24.8780 C   0  0  0  0  0  0  0  0  0  0  0  0
  -34.8620   12.2640  -23.5590 C   0  0  0  0  0  3  0  0  0  0  0  0
  -35.2430   12.1740  -19.8840 C   0  0  0  0  0  0  0  0  0  0  0  0
  -33.0730   12.5050  -19.3250 C   0  0  0  0  0  3  0  0  0  0  0  0
  -34.7600   12.6240  -21.0970 C   0  0  0  0  0  0  0  0  0  0  0  0
  -34.2690   12.1110  -18.8850 N   0  0  0  0  0  0  0  0  0  0  0  0
  -33.0530   13.0000  -21.0050 S   0  0  0  0  0  0  0  0  0  0  0  0
  -36.6320   11.7350  -19.5370 C   0  0  0  0  0  1  0  0  0  0  0  0
  -37.5900   12.9380  -26.1940 C   0  0  0  0  0  2  0  0  0  0  0  0
  -36.2000   13.7120  -28.0930 C   0  0  0  0  0  0  0  0  0  0  0  0
  -36.4530   14.9080  -27.9220 O   0  0  0  0  0  0  0  0  0  0  0  0
  -36.7500   12.7360  -27.3660 N   0  0  0  0  0  0  0  0  0  0  0  0
  -36.5040   11.7830  -27.5920 H   0  0  0  0  0  0  0  0  0  0  0  0
  -36.1430   14.4440  -31.1140 C   0  0  0  0  0  0  0  0  0  0  0  0
  -35.1600   13.2680  -29.1340 C   0  0  0  0  0  3  0  0  0  0  0  0
  -33.6840   14.4880  -30.6060 C   0  0  0  0  0  2  0  0  0  0  0  0
  -35.0810   14.1370  -30.3230 N   0  0  0  0  0  0  0  0  0  0  0  0
  -37.2670   13.9760  -30.9010 O   0  0  0  0  0  0  0  0  0  0  0  0
  -33.7590   13.3080  -28.5000 C   0  0  0  0  0  2  0  0  0  0  0  0
  -32.8320   13.6650  -29.6430 C   0  0  0  0  0  3  0  0  0  0  0  0
  -32.4030   12.4910  -30.3150 O   0  0  0  0  0  0  0  0  0  0  0  0
  -33.1720   12.0240  -30.6290 H   0  0  0  0  0  0  0  0  0  0  0  0
  -35.9580   15.3690  -32.3480 C   0  0  0  0  0  3  0  0  0  0  0  0
  -35.7660   17.4730  -30.8580 C   0  0  0  0  0  1  0  0  0  0  0  0
  -36.0070   17.7120  -33.3160 C   0  0  0  0  0  1  0  0  0  0  0  0
  -37.9620   16.9720  -31.9370 C   0  0  0  0  0  1  0  0  0  0  0  0
  -36.4320   16.8490  -32.1090 C   0  0  1  0  0  0  0  0  0  0  0  0
  -36.7020   14.7600  -33.4630 N   0  0  0  0  0  0  0  0  0  0  0  0
  -36.1780   14.2170  -34.5710 C   0  0  0  0  0  0  0  0  0  0  0  0
  -34.9670   14.2450  -34.8050 O   0  0  0  0  0  0  0  0  0  0  0  0
  -37.6970   14.6380  -33.3300 H   0  0  0  0  0  0  0  0  0  0  0  0
  -37.1630   13.5690  -35.5080 C   0  0  1  0  0  0  0  0  0  0  0  0
  -38.4350   13.4300  -34.9760 F   0  0  0  0  0  0  0  0  0  0  0  0
  -37.0690   13.8440  -36.9900 C   0  0  0  0  0  2  0  0  0  0  0  0
  -36.6980   12.4800  -36.4510 C   0  0  0  0  0  2  0  0  0  0  0  0
  -38.6740   13.9790  -23.7200 O   0  0  0  0  0  0  0  0  0  0  0  0
  -37.2840   18.7170  -25.7220 C   0  0  0  0  0  3  0  0  0  0  0  0
  -38.3900   18.5970  -24.8450 C   0  0  0  0  0  0  0  0  0  0  0  0
  -40.0810   15.8420  -23.2890 C   0  0  0  0  0  2  0  0  0  0  0  0
  -39.9440   17.3630  -23.3630 C   0  0  0  0  0  2  0  0  0  0  0  0
  -37.8460   16.3710  -23.8610 C   0  0  0  0  0  2  0  0  0  0  0  0
  -38.9200   15.3160  -24.1300 C   0  0  0  0  0  3  0  0  0  0  0  0
  -37.4860   19.7190  -26.5400 N   0  0  0  0  0  0  0  0  0  0  0  0
  -39.2640   19.5340  -25.1030 N   0  0  0  0  0  0  0  0  0  0  0  0
  -38.6950   20.2120  -26.1380 N   0  0  0  0  0  0  0  0  0  0  0  0
  -38.5850   17.6290  -23.8380 N   0  0  0  0  0  0  0  0  0  0  0  0
  -38.2690   22.4900  -26.9150 C   0  0  0  0  0  1  0  0  0  0  0  0
  -40.4880   21.9640  -25.9450 C   0  0  0  0  0  1  0  0  0  0  0  0
  -39.3340   21.3660  -26.7930 C   0  0  2  0  0  0  0  0  0  0  0  0
  -40.2390   19.7210  -28.5080 N   0  0  0  0  0  0  0  0  0  0  0  0
  -39.9590   19.2330  -29.8610 C   0  0  0  0  0  2  0  0  0  0  0  0
  -41.1890   19.3920  -30.7630 C   0  0  0  0  0  2  0  0  0  0  0  0
  -42.2710   18.6150  -30.1800 N   0  0  0  0  0  0  0  0  0  0  0  0
  -42.6680   18.9670  -28.8230 C   0  0  0  0  0  2  0  0  0  0  0  0
  -41.4610   19.2020  -27.8770 C   0  0  0  0  0  2  0  0  0  0  0  0
  -39.8440   20.9890  -28.2180 C   0  0  0  0  0  0  0  0  0  0  0  0
  -39.7820   21.8510  -29.1050 O   0  0  0  0  0  0  0  0  0  0  0  0
  -43.2000   18.0180  -31.0610 C   0  0  0  0  0  0  0  0  0  0  0  0
  -44.5010   18.5240  -31.2590 C   0  0  0  0  0  3  0  0  0  0  0  0
  -45.3750   17.8520  -32.1570 C   0  0  0  0  0  0  0  0  0  0  0  0
  -44.9400   16.7330  -32.8060 N   0  0  0  0  0  0  0  0  0  0  0  0
  -43.7160   16.2310  -32.6180 N   0  0  0  0  0  0  0  0  0  0  0  0
  -42.8630   16.8470  -31.7770 C   0  0  0  0  0  0  0  0  0  0  0  0
  -41.6310   16.2410  -31.6000 N   0  0  0  0  0  0  0  0  0  0  0  0
  -41.1650   16.5720  -30.7660 H   0  0  0  0  0  0  0  0  0  0  0  0
  -41.6110   15.2380  -31.7200 H   0  0  0  0  0  0  0  0  0  0  0  0
  -46.7840   18.2930  -32.4400 C   0  0  0  0  0  0  0  0  0  0  0  0
  -47.7030   17.5830  -33.2810 C   0  0  0  0  0  0  0  0  0  0  0  0
  -49.0190   18.0480  -33.4840 C   0  0  0  0  0  3  0  0  0  0  0  0
  -49.4660   19.2250  -32.8680 C   0  0  0  0  0  3  0  0  0  0  0  0
  -48.5890   19.9470  -32.0490 C   0  0  0  0  0  3  0  0  0  0  0  0
  -47.2740   19.4860  -31.8450 C   0  0  0  0  0  3  0  0  0  0  0  0
  -47.3810   16.4250  -33.9340 O   0  0  0  0  0  0  0  0  0  0  0  0
  -46.4690   16.1880  -33.7600 H   0  0  0  0  0  0  0  0  0  0  0  0
  1  2  1  0
  2  3  2  0
  3  9  1  0
  4  6  2  0
  5  4  1  0
  5  1  2  0
  6  3  1  0
  7 12  1  0
  7 10  1  0
  8 10  2  0
  9 11  1  0
  9  7  2  0
 11  8  1  0
 13  5  1  0
 14 15  2  0
 14 16  1  0
 16 13  1  0
 17 16  1  0
 18 22  2  0
 18 21  1  0
 19 23  1  0
 19 14  1  0
 20 21  1  0
 20 24  1  0
 21 19  1  0
 24 25  1  0
 24 23  1  0
 26 25  1  0
 27 31  1  0
 27 18  1  0
 31 29  1  6
 31 30  1  0
 31 28  1  0
 32 35  1  0
 32 27  1  0
 33 32  1  0
 34 33  2  0
 36 37  1  1
 36 33  1  0
 38 39  1  0
 38 36  1  0
 39 36  1  0
 40  1  1  0
 41 42  1  0
 42 50  1  0
 44 43  1  0
 45 50  1  0
 46 45  1  0
 46 40  1  0
 46 43  1  0
 47 49  1  0
 47 41  2  0
 48 42  2  0
 49 48  1  0
 50 44  1  0
 53 51  1  6
 53 49  1  0
 53 52  1  0
 54 60  1  0
 54 59  1  0
 55 54  1  0
 56 57  1  0
 56 55  1  0
 57 58  1  0
 58 59  1  0
 60 53  1  0
 61 60  2  0
 62 57  1  0
 63 62  1  0
 64 63  2  0
 65 66  2  0
 65 64  1  0
 66 67  1  0
 67 68  1  0
 67 62  2  0
 68 69  1  0
 70 68  1  0
 71 64  1  0
 71 76  1  0
 72 71  2  0
 73 72  1  0
 73 74  2  0
 74 75  1  0
 75 76  2  0
 77 78  1  0
 77 72  1  0
M  ISO  4  40 101  46 101  54 100  60 100
M  END
>  <TORSDO>  (99) 
F 16

>  <SCORE>  (99) 
-14.675

>  <name>  (99) 
98

>  <ligand_id>  (99) 
98

>  <original_smiles>  (99) 
[H]Oc1c([H])c([H])c([H])c([H])c1-c1nnc(N([H])[H])c(N2C([H])([H])C([H])([H])N(C(=O)C(n3nc([H])c(N4C([H])([H])C([H])([H])C([H])(Oc5c([H])c(-c6sc([H])nc6C([H])([H])[H])c([H])c([H])c5C([H])([H])N([H])C(=O)C5([H])N(C(=O)C([H])(N([H])C(=O)C6(F)C([H])([H])C6([H])[H])C(C([H])([H])[H])(C([H])([H])[H])C([H])([H])[H])C([H])([H])C([H])(O[H])C5([H])[H])C4([H])[H])n3)(C([H])([H])[H])C([H])([H])[H])C([H])([H])C2([H])[H])c1[H]

>  <smiles>  (99) 
[H]Oc1c([H])c([H])c([H])c([H])c1-c1nnc(N([H])[H])c(N2C([H])([H])C([H])([H])N(C(=O)C(n3nc([H])c(N4C([H])([H])C([H])([H])C([H])(Oc5c([H])c(-c6sc([H])nc6C([H])([H])[H])c([H])c([H])c5C([H])([H])N([H])C(=O)C5([H])N(C(=O)C([H])(N([H])C(=O)C6(F)C([H])([H])C6([H])[H])C(C([H])([H])[H])(C([H])([H])[H])C([H])([H])[H])C([H])([H])C([H])(O[H])C5([H])[H])C4([H])[H])n3)(C([H])([H])[H])C([H])([H])[H])C([H])([H])C2([H])[H])c1[H]

$$$$
99:0:0
     RDKit          3D

 70 77  0  0  1  0  0  0  0  0999 V2000
  -37.3890   13.5700  -23.7650 C   0  0  0  0  0  0  0  0  0  0  0  0
  -36.7210   13.4900  -22.5130 C   0  0  0  0  0  3  0  0  0  0  0  0
  -35.4670   12.8370  -22.3930 C   0  0  0  0  0  0  0  0  0  0  0  0
  -35.5640   12.3160  -24.7830 C   0  0  0  0  0  3  0  0  0  0  0  0
  -36.8270   12.9380  -24.8920 C   0  0  0  0  0  0  0  0  0  0  0  0
  -34.8880   12.2800  -23.5520 C   0  0  0  0  0  3  0  0  0  0  0  0
  -35.2270   12.2460  -19.8880 C   0  0  0  0  0  0  0  0  0  0  0  0
  -33.0580   12.6200  -19.3490 C   0  0  0  0  0  3  0  0  0  0  0  0
  -34.7670   12.7030  -21.1090 C   0  0  0  0  0  0  0  0  0  0  0  0
  -34.2420   12.2060  -18.8970 N   0  0  0  0  0  0  0  0  0  0  0  0
  -33.0650   13.1090  -21.0310 S   0  0  0  0  0  0  0  0  0  0  0  0
  -36.6030   11.7780  -19.5310 C   0  0  0  0  0  1  0  0  0  0  0  0
  -37.6010   12.9200  -26.2080 C   0  0  0  0  0  2  0  0  0  0  0  0
  -36.2090   13.6970  -28.0970 C   0  0  0  0  0  0  0  0  0  0  0  0
  -36.4600   14.8900  -27.9230 O   0  0  0  0  0  0  0  0  0  0  0  0
  -36.7590   12.7190  -27.3750 N   0  0  0  0  0  0  0  0  0  0  0  0
  -36.5160   11.7640  -27.6030 H   0  0  0  0  0  0  0  0  0  0  0  0
  -36.1510   14.4510  -31.1080 C   0  0  0  0  0  0  0  0  0  0  0  0
  -35.1700   13.2570  -29.1380 C   0  0  0  0  0  3  0  0  0  0  0  0
  -33.6920   14.4840  -30.6010 C   0  0  0  0  0  2  0  0  0  0  0  0
  -35.0900   14.1330  -30.3210 N   0  0  0  0  0  0  0  0  0  0  0  0
  -37.2770   13.9860  -30.8970 O   0  0  0  0  0  0  0  0  0  0  0  0
  -33.7710   13.2910  -28.5010 C   0  0  0  0  0  2  0  0  0  0  0  0
  -32.8430   13.6510  -29.6430 C   0  0  0  0  0  3  0  0  0  0  0  0
  -32.4180   12.4790  -30.3210 O   0  0  0  0  0  0  0  0  0  0  0  0
  -33.1880   12.0180  -30.6380 H   0  0  0  0  0  0  0  0  0  0  0  0
  -35.9630   15.3800  -32.3360 C   0  0  0  0  0  3  0  0  0  0  0  0
  -36.7230   14.7890  -33.4500 N   0  0  0  0  0  0  0  0  0  0  0  0
  -36.2160   14.2440  -34.5640 C   0  0  0  0  0  0  0  0  0  0  0  0
  -35.0050   14.2540  -34.8070 O   0  0  0  0  0  0  0  0  0  0  0  0
  -37.7190   14.6790  -33.3110 H   0  0  0  0  0  0  0  0  0  0  0  0
  -37.2150   13.6160  -35.4980 C   0  0  1  0  0  0  0  0  0  0  0  0
  -38.4870   13.4950  -34.9600 F   0  0  0  0  0  0  0  0  0  0  0  0
  -37.1240   13.8960  -36.9800 C   0  0  0  0  0  2  0  0  0  0  0  0
  -36.7760   12.5240  -36.4490 C   0  0  0  0  0  2  0  0  0  0  0  0
  -35.7290   17.4740  -30.8390 C   0  0  0  0  0  1  0  0  0  0  0  0
  -35.9950   17.7290  -33.2930 C   0  0  0  0  0  1  0  0  0  0  0  0
  -37.9430   17.0030  -31.8970 C   0  0  0  0  0  1  0  0  0  0  0  0
  -36.4160   16.8650  -32.0850 C   0  0  1  0  0  0  0  0  0  0  0  0
  -38.5480   14.3040  -23.9330 O   0  0  0  0  0  0  0  0  0  0  0  0
  -38.2950   15.7250  -24.1180 C   0  0  0  0  0  2  0  0  0  0  0  0
  -40.2740   19.0640  -28.1580 N   0  0  0  0  0  0  0  0  0  0  0  0
  -39.8690   19.3430  -29.5520 C   0  0  0  0  0  2  0  0  0  0  0  0
  -41.0790   19.4170  -30.5490 C   0  0  0  0  0  2  0  0  0  0  0  0
  -42.2280   18.6470  -30.0570 N   0  0  0  0  0  0  0  0  0  0  0  0
  -42.6840   18.9090  -28.6920 C   0  0  0  0  0  2  0  0  0  0  0  0
  -41.5940   19.6080  -27.8470 C   0  0  0  0  0  2  0  0  0  0  0  0
  -40.2270   16.4900  -25.6720 C   0  0  0  0  0  3  0  0  0  0  0  0
  -38.8480   16.4090  -25.3960 C   0  0  0  0  0  0  0  0  0  0  0  0
  -39.7910   18.0140  -27.3510 C   0  0  0  0  0  0  0  0  0  0  0  0
  -40.6920   17.3050  -26.6540 N   0  0  0  0  0  0  0  0  0  0  0  0
  -37.9870   17.1180  -26.1830 N   0  0  0  0  0  0  0  0  0  0  0  0
  -38.4600   17.9180  -27.1700 N   0  0  0  0  0  0  0  0  0  0  0  0
  -43.1190   18.0430  -30.9750 C   0  0  0  0  0  0  0  0  0  0  0  0
  -44.4200   18.5370  -31.2110 C   0  0  0  0  0  3  0  0  0  0  0  0
  -45.2710   17.8520  -32.1200 C   0  0  0  0  0  0  0  0  0  0  0  0
  -44.8150   16.7300  -32.7490 N   0  0  0  0  0  0  0  0  0  0  0  0
  -43.5940   16.2390  -32.5280 N   0  0  0  0  0  0  0  0  0  0  0  0
  -42.7610   16.8650  -31.6720 C   0  0  0  0  0  0  0  0  0  0  0  0
  -41.5380   16.2600  -31.4550 N   0  0  0  0  0  0  0  0  0  0  0  0
  -41.1010   16.5880  -30.6030 H   0  0  0  0  0  0  0  0  0  0  0  0
  -41.5170   15.2580  -31.5730 H   0  0  0  0  0  0  0  0  0  0  0  0
  -46.6770   18.2820  -32.4390 C   0  0  0  0  0  0  0  0  0  0  0  0
  -47.5780   17.5550  -33.2870 C   0  0  0  0  0  0  0  0  0  0  0  0
  -48.8900   18.0130  -33.5240 C   0  0  0  0  0  3  0  0  0  0  0  0
  -49.3540   19.1980  -32.9370 C   0  0  0  0  0  3  0  0  0  0  0  0
  -48.4960   19.9360  -32.1100 C   0  0  0  0  0  3  0  0  0  0  0  0
  -47.1850   19.4820  -31.8720 C   0  0  0  0  0  3  0  0  0  0  0  0
  -47.2390   16.3890  -33.9130 O   0  0  0  0  0  0  0  0  0  0  0  0
  -46.3300   16.1570  -33.7180 H   0  0  0  0  0  0  0  0  0  0  0  0
  1  2  1  0
  2  3  2  0
  3  9  1  0
  4  6  2  0
  5  4  1  0
  5  1  2  0
  6  3  1  0
  7 12  1  0
  7 10  1  0
  8 10  2  0
  9 11  1  0
  9  7  2  0
 11  8  1  0
 13  5  1  0
 14 15  2  0
 14 16  1  0
 16 13  1  0
 17 16  1  0
 18 22  2  0
 18 21  1  0
 19 23  1  0
 19 14  1  0
 20 21  1  0
 20 24  1  0
 21 19  1  0
 24 25  1  0
 24 23  1  0
 26 25  1  0
 27 39  1  0
 27 18  1  0
 28 31  1  0
 28 27  1  0
 29 28  1  0
 30 29  2  0
 32 33  1  1
 32 29  1  0
 34 35  1  0
 34 32  1  0
 35 32  1  0
 39 37  1  6
 39 38  1  0
 39 36  1  0
 40  1  1  0
 41 40  1  0
 42 47  1  0
 42 50  1  0
 43 42  1  0
 44 45  1  0
 44 43  1  0
 45 46  1  0
 46 47  1  0
 48 49  2  0
 49 41  1  0
 50 53  1  0
 50 51  2  0
 51 48  1  0
 52 49  1  0
 53 52  2  0
 54 45  1  0
 55 54  1  0
 56 55  2  0
 57 58  2  0
 57 56  1  0
 58 59  1  0
 59 60  1  0
 59 54  2  0
 60 61  1  0
 62 60  1  0
 63 56  1  0
 63 68  1  0
 64 63  2  0
 65 64  1  0
 65 66  2  0
 66 67  1  0
 67 68  2  0
 69 70  1  0
 69 64  1  0
M  ISO  4  40 101  41 101  42 100  50 100
M  END
>  <TORSDO>  (100) 
F 15

>  <SCORE>  (100) 
-14.594

>  <name>  (100) 
99

>  <ligand_id>  (100) 
99

>  <original_smiles>  (100) 
[H]Oc1c([H])c([H])c([H])c([H])c1-c1nnc(N([H])[H])c(N2C([H])([H])C([H])([H])N(c3nnc(C([H])([H])Oc4c([H])c(-c5sc([H])nc5C([H])([H])[H])c([H])c([H])c4C([H])([H])N([H])C(=O)C4([H])N(C(=O)C([H])(N([H])C(=O)C5(F)C([H])([H])C5([H])[H])C(C([H])([H])[H])(C([H])([H])[H])C([H])([H])[H])C([H])([H])C([H])(O[H])C4([H])[H])c([H])n3)C([H])([H])C2([H])[H])c1[H]

>  <smiles>  (100) 
[H]Oc1c([H])c([H])c([H])c([H])c1-c1nnc(N([H])[H])c(N2C([H])([H])C([H])([H])N(c3nnc(C([H])([H])Oc4c([H])c(-c5sc([H])nc5C([H])([H])[H])c([H])c([H])c4C([H])([H])N([H])C(=O)C4([H])N(C(=O)C([H])(N([H])C(=O)C5(F)C([H])([H])C5([H])[H])C(C([H])([H])[H])(C([H])([H])[H])C([H])([H])[H])C([H])([H])C([H])(O[H])C4([H])[H])c([H])n3)C([H])([H])C2([H])[H])c1[H]

$$$$
100:0:0
     RDKit          3D

 80 88  0  0  1  0  0  0  0  0999 V2000
  -38.7160   14.0930  -23.5700 O   0  0  0  0  0  0  0  0  0  0  0  0
  -41.6060   14.8900  -26.4530 C   0  0  0  0  0  3  0  0  0  0  0  0
  -41.9930   14.4760  -25.1640 C   0  0  0  0  0  3  0  0  0  0  0  0
  -40.8760   16.9720  -25.5040 C   0  0  0  0  0  3  0  0  0  0  0  0
  -40.9310   16.1190  -26.6110 C   0  0  0  0  0  0  0  0  0  0  0  0
  -41.6610   15.3130  -24.0710 C   0  0  0  0  0  0  0  0  0  0  0  0
  -40.3290   12.9910  -21.9570 C   0  0  0  0  0  2  0  0  0  0  0  0
  -41.7400   13.4840  -22.3480 C   0  0  0  0  0  2  0  0  0  0  0  0
  -40.3780   15.3170  -22.0560 C   0  0  0  0  0  2  0  0  0  0  0  0
  -39.3880   14.1670  -22.2480 C   0  0  0  0  0  3  0  0  0  0  0  0
  -41.2470   16.5820  -24.2760 N   0  0  0  0  0  0  0  0  0  0  0  0
  -41.6130   14.8960  -22.7230 N   0  0  0  0  0  0  0  0  0  0  0  0
  -40.2670   16.4940  -27.8720 C   0  0  0  0  0  0  0  0  0  0  0  0
  -40.2020   15.7350  -28.8390 O   0  0  0  0  0  0  0  0  0  0  0  0
  -40.2430   18.9700  -28.3790 N   0  0  0  0  0  0  0  0  0  0  0  0
  -39.9570   19.4790  -29.7420 C   0  0  0  0  0  2  0  0  0  0  0  0
  -41.2160   19.4500  -30.6670 C   0  0  0  0  0  2  0  0  0  0  0  0
  -42.2630   18.5570  -30.1420 N   0  0  0  0  0  0  0  0  0  0  0  0
  -42.7130   18.7570  -28.7710 C   0  0  0  0  0  2  0  0  0  0  0  0
  -41.5910   19.3100  -27.8740 C   0  0  0  0  0  2  0  0  0  0  0  0
  -39.5590   17.8660  -27.9860 C   0  0  0  0  0  3  0  0  0  0  0  0
  -38.2270   17.9150  -27.8160 N   0  0  0  0  0  0  0  0  0  0  0  0
  -37.7170   17.0980  -27.5430 H   0  0  0  0  0  0  0  0  0  0  0  0
  -37.7370   18.7950  -27.7830 H   0  0  0  0  0  0  0  0  0  0  0  0
  -43.1750   17.9830  -31.0520 C   0  0  0  0  0  0  0  0  0  0  0  0
  -44.4830   18.4890  -31.2490 C   0  0  0  0  0  3  0  0  0  0  0  0
  -45.3410   17.8400  -32.1770 C   0  0  0  0  0  0  0  0  0  0  0  0
  -44.8950   16.7470  -32.8540 N   0  0  0  0  0  0  0  0  0  0  0  0
  -43.6700   16.2400  -32.6620 N   0  0  0  0  0  0  0  0  0  0  0  0
  -42.8360   16.8290  -31.7880 C   0  0  0  0  0  0  0  0  0  0  0  0
  -41.6080   16.2160  -31.6060 N   0  0  0  0  0  0  0  0  0  0  0  0
  -40.9960   16.5730  -30.8870 H   0  0  0  0  0  0  0  0  0  0  0  0
  -41.2900   15.4450  -32.1650 H   0  0  0  0  0  0  0  0  0  0  0  0
  -46.7480   18.2830  -32.4740 C   0  0  0  0  0  0  0  0  0  0  0  0
  -47.6600   17.5790  -33.3310 C   0  0  0  0  0  0  0  0  0  0  0  0
  -48.9700   18.0530  -33.5410 C   0  0  0  0  0  3  0  0  0  0  0  0
  -49.4190   19.2230  -32.9160 C   0  0  0  0  0  3  0  0  0  0  0  0
  -48.5480   19.9340  -32.0830 C   0  0  0  0  0  3  0  0  0  0  0  0
  -47.2400   19.4680  -31.8690 C   0  0  0  0  0  3  0  0  0  0  0  0
  -47.3330   16.4240  -33.9850 O   0  0  0  0  0  0  0  0  0  0  0  0
  -46.4280   16.1640  -33.8040 H   0  0  0  0  0  0  0  0  0  0  0  0
  -37.4290   13.5380  -23.6410 C   0  0  0  0  0  0  0  0  0  0  0  0
  -36.6280   13.4750  -22.4730 C   0  0  0  0  0  3  0  0  0  0  0  0
  -35.3670   12.8680  -22.4280 C   0  0  0  0  0  0  0  0  0  0  0  0
  -35.5640   12.4310  -24.8100 C   0  0  0  0  0  3  0  0  0  0  0  0
  -36.8620   13.0110  -24.8480 C   0  0  0  0  0  0  0  0  0  0  0  0
  -34.8280   12.3550  -23.6150 C   0  0  0  0  0  3  0  0  0  0  0  0
  -35.1540   12.2750  -19.9300 C   0  0  0  0  0  0  0  0  0  0  0  0
  -33.0190   12.7550  -19.3490 C   0  0  0  0  0  3  0  0  0  0  0  0
  -34.6770   12.7400  -21.1450 C   0  0  0  0  0  0  0  0  0  0  0  0
  -34.1880   12.2850  -18.9160 N   0  0  0  0  0  0  0  0  0  0  0  0
  -33.0120   13.2380  -21.0350 S   0  0  0  0  0  0  0  0  0  0  0  0
  -36.5230   11.7660  -19.5910 C   0  0  0  0  0  1  0  0  0  0  0  0
  -37.6350   12.9630  -26.1790 C   0  0  0  0  0  2  0  0  0  0  0  0
  -36.2210   13.7320  -28.1200 C   0  0  0  0  0  0  0  0  0  0  0  0
  -36.4900   14.9250  -27.9820 O   0  0  0  0  0  0  0  0  0  0  0  0
  -36.7780   12.7750  -27.3630 N   0  0  0  0  0  0  0  0  0  0  0  0
  -36.5250   11.8150  -27.5730 H   0  0  0  0  0  0  0  0  0  0  0  0
  -36.1330   14.4270  -31.1600 C   0  0  0  0  0  0  0  0  0  0  0  0
  -35.1700   13.2700  -29.1550 C   0  0  0  0  0  3  0  0  0  0  0  0
  -33.6850   14.4900  -30.6270 C   0  0  0  0  0  2  0  0  0  0  0  0
  -35.0790   14.1270  -30.3550 N   0  0  0  0  0  0  0  0  0  0  0  0
  -37.2620   13.9620  -30.9500 O   0  0  0  0  0  0  0  0  0  0  0  0
  -33.7710   13.3070  -28.5220 C   0  0  0  0  0  2  0  0  0  0  0  0
  -32.8350   13.6700  -29.6590 C   0  0  0  0  0  3  0  0  0  0  0  0
  -32.3880   12.5020  -30.3320 O   0  0  0  0  0  0  0  0  0  0  0  0
  -33.1570   12.0340  -30.6400 H   0  0  0  0  0  0  0  0  0  0  0  0
  -35.9430   15.3470  -32.3960 C   0  0  0  0  0  3  0  0  0  0  0  0
  -35.7450   17.4470  -30.8990 C   0  0  0  0  0  1  0  0  0  0  0  0
  -35.9590   17.6860  -33.3680 C   0  0  0  0  0  1  0  0  0  0  0  0
  -37.9270   16.9730  -31.9950 C   0  0  0  0  0  1  0  0  0  0  0  0
  -36.3970   16.8320  -32.1600 C   0  0  1  0  0  0  0  0  0  0  0  0
  -36.7040   14.7500  -33.5080 N   0  0  0  0  0  0  0  0  0  0  0  0
  -36.1940   14.1960  -34.6200 C   0  0  0  0  0  0  0  0  0  0  0  0
  -34.9840   14.2150  -34.8630 O   0  0  0  0  0  0  0  0  0  0  0  0
  -37.7010   14.6350  -33.3710 H   0  0  0  0  0  0  0  0  0  0  0  0
  -37.1900   13.5570  -35.5480 C   0  0  1  0  0  0  0  0  0  0  0  0
  -38.4570   13.4210  -35.0020 F   0  0  0  0  0  0  0  0  0  0  0  0
  -37.1140   13.8500  -37.0290 C   0  0  0  0  0  2  0  0  0  0  0  0
  -36.7410   12.4790  -36.5060 C   0  0  0  0  0  2  0  0  0  0  0  0
  2  3  1  0
  3  6  2  0
  4 11  2  0
  5  2  2  0
  5  4  1  0
  6 12  1  0
  8  7  1  0
 10  1  1  0
 10  9  1  0
 10  7  1  0
 11  6  1  0
 12  8  1  0
 12  9  1  0
 13  5  1  0
 14 13  2  0
 15 21  1  0
 15 20  1  0
 16 15  1  0
 17 18  1  0
 17 16  1  0
 18 19  1  0
 19 20  1  0
 21 13  1  0
 21 22  1  0
 22 24  1  0
 22 23  1  0
 25 18  1  0
 26 25  1  0
 27 26  2  0
 28 29  2  0
 28 27  1  0
 29 30  1  0
 30 31  1  0
 30 25  2  0
 31 32  1  0
 33 31  1  0
 34 27  1  0
 34 39  1  0
 35 34  2  0
 36 35  1  0
 36 37  2  0
 37 38  1  0
 38 39  2  0
 40 41  1  0
 40 35  1  0
 42  1  1  0
 42 43  1  0
 43 44  2  0
 44 50  1  0
 45 47  2  0
 46 45  1  0
 46 42  2  0
 47 44  1  0
 48 53  1  0
 48 51  1  0
 49 51  2  0
 50 52  1  0
 50 48  2  0
 52 49  1  0
 54 46  1  0
 55 56  2  0
 55 57  1  0
 57 54  1  0
 58 57  1  0
 59 63  2  0
 59 62  1  0
 60 64  1  0
 60 55  1  0
 61 62  1  0
 61 65  1  0
 62 60  1  0
 65 66  1  0
 65 64  1  0
 67 66  1  0
 68 72  1  0
 68 59  1  0
 72 70  1  6
 72 71  1  0
 72 69  1  0
 73 76  1  0
 73 68  1  0
 74 73  1  0
 75 74  2  0
 77 78  1  1
 77 74  1  0
 79 80  1  0
 79 77  1  0
 80 77  1  0
M  ISO  4   1 101  10 101  15 100  21 100
M  END
>  <TORSDO>  (101) 
F 16

>  <SCORE>  (101) 
-14.729

>  <name>  (101) 
100

>  <ligand_id>  (101) 
100

>  <original_smiles>  (101) 
[H]Oc1c([H])c([H])c([H])c([H])c1-c1nnc(N([H])[H])c(N2C([H])([H])C([H])([H])N(C(C(=O)c3c([H])nc(N4C([H])([H])C([H])([H])C([H])(Oc5c([H])c(-c6sc([H])nc6C([H])([H])[H])c([H])c([H])c5C([H])([H])N([H])C(=O)C5([H])N(C(=O)C([H])(N([H])C(=O)C6(F)C([H])([H])C6([H])[H])C(C([H])([H])[H])(C([H])([H])[H])C([H])([H])[H])C([H])([H])C([H])(O[H])C5([H])[H])C4([H])[H])c([H])c3[H])=[N+]([H])[H])C([H])([H])C2([H])[H])c1[H]

>  <smiles>  (101) 
[H]Oc1c([H])c([H])c([H])c([H])c1-c1nnc(N([H])[H])c(N2C([H])([H])C([H])([H])N(C(C(=O)c3c([H])nc(N4C([H])([H])C([H])([H])C([H])(Oc5c([H])c(-c6sc([H])nc6C([H])([H])[H])c([H])c([H])c5C([H])([H])N([H])C(=O)C5([H])N(C(=O)C([H])(N([H])C(=O)C6(F)C([H])([H])C6([H])[H])C(C([H])([H])[H])(C([H])([H])[H])C([H])([H])[H])C([H])([H])C([H])(O[H])C5([H])[H])C4([H])[H])c([H])c3[H])=[N+]([H])[H])C([H])([H])C2([H])[H])c1[H]

$$$$
101:0:0
     RDKit          3D

 70 77  0  0  1  0  0  0  0  0999 V2000
  -37.3840   13.5580  -23.7640 C   0  0  0  0  0  0  0  0  0  0  0  0
  -36.7140   13.4850  -22.5140 C   0  0  0  0  0  3  0  0  0  0  0  0
  -35.4540   12.8470  -22.3970 C   0  0  0  0  0  0  0  0  0  0  0  0
  -35.5490   12.3260  -24.7870 C   0  0  0  0  0  3  0  0  0  0  0  0
  -36.8180   12.9360  -24.8950 C   0  0  0  0  0  0  0  0  0  0  0  0
  -34.8710   12.2970  -23.5570 C   0  0  0  0  0  3  0  0  0  0  0  0
  -35.2110   12.2630  -19.8920 C   0  0  0  0  0  0  0  0  0  0  0  0
  -33.0460   12.6570  -19.3510 C   0  0  0  0  0  3  0  0  0  0  0  0
  -34.7540   12.7210  -21.1130 C   0  0  0  0  0  0  0  0  0  0  0  0
  -34.2280   12.2330  -18.9000 N   0  0  0  0  0  0  0  0  0  0  0  0
  -33.0560   13.1440  -21.0350 S   0  0  0  0  0  0  0  0  0  0  0  0
  -36.5840   11.7840  -19.5360 C   0  0  0  0  0  1  0  0  0  0  0  0
  -37.5940   12.9160  -26.2110 C   0  0  0  0  0  2  0  0  0  0  0  0
  -36.2070   13.6940  -28.1040 C   0  0  0  0  0  0  0  0  0  0  0  0
  -36.4660   14.8880  -27.9340 O   0  0  0  0  0  0  0  0  0  0  0  0
  -36.7500   12.7170  -27.3780 N   0  0  0  0  0  0  0  0  0  0  0  0
  -36.5030   11.7630  -27.6040 H   0  0  0  0  0  0  0  0  0  0  0  0
  -36.1510   14.4320  -31.1220 C   0  0  0  0  0  0  0  0  0  0  0  0
  -35.1660   13.2550  -29.1440 C   0  0  0  0  0  3  0  0  0  0  0  0
  -33.6930   14.4790  -30.6150 C   0  0  0  0  0  2  0  0  0  0  0  0
  -35.0890   14.1250  -30.3320 N   0  0  0  0  0  0  0  0  0  0  0  0
  -37.2760   13.9620  -30.9090 O   0  0  0  0  0  0  0  0  0  0  0  0
  -33.7660   13.2980  -28.5090 C   0  0  0  0  0  2  0  0  0  0  0  0
  -32.8400   13.6550  -29.6520 C   0  0  0  0  0  3  0  0  0  0  0  0
  -32.4090   12.4820  -30.3240 O   0  0  0  0  0  0  0  0  0  0  0  0
  -33.1770   12.0160  -30.6400 H   0  0  0  0  0  0  0  0  0  0  0  0
  -35.9670   15.3560  -32.3560 C   0  0  0  0  0  3  0  0  0  0  0  0
  -36.7170   14.7500  -33.4690 N   0  0  0  0  0  0  0  0  0  0  0  0
  -36.2010   14.2070  -34.5790 C   0  0  0  0  0  0  0  0  0  0  0  0
  -34.9900   14.2290  -34.8190 O   0  0  0  0  0  0  0  0  0  0  0  0
  -37.7120   14.6310  -33.3320 H   0  0  0  0  0  0  0  0  0  0  0  0
  -37.1910   13.5640  -35.5130 C   0  0  1  0  0  0  0  0  0  0  0  0
  -38.4630   13.4320  -34.9780 F   0  0  0  0  0  0  0  0  0  0  0  0
  -37.0980   13.8380  -36.9960 C   0  0  0  0  0  2  0  0  0  0  0  0
  -36.7370   12.4720  -36.4580 C   0  0  0  0  0  2  0  0  0  0  0  0
  -35.7620   17.4580  -30.8660 C   0  0  0  0  0  1  0  0  0  0  0  0
  -36.0130   17.6990  -33.3250 C   0  0  0  0  0  1  0  0  0  0  0  0
  -37.9640   16.9630  -31.9370 C   0  0  0  0  0  1  0  0  0  0  0  0
  -36.4350   16.8370  -32.1140 C   0  0  1  0  0  0  0  0  0  0  0  0
  -38.5390   14.2930  -23.9260 O   0  0  0  0  0  0  0  0  0  0  0  0
  -38.2590   15.7060  -24.1050 C   0  0  0  0  0  2  0  0  0  0  0  0
  -40.2860   19.1050  -28.1680 N   0  0  0  0  0  0  0  0  0  0  0  0
  -39.8830   19.3580  -29.5660 C   0  0  0  0  0  2  0  0  0  0  0  0
  -41.1000   19.4300  -30.5510 C   0  0  0  0  0  2  0  0  0  0  0  0
  -42.2350   18.6400  -30.0620 N   0  0  0  0  0  0  0  0  0  0  0  0
  -42.7070   18.9040  -28.7030 C   0  0  0  0  0  2  0  0  0  0  0  0
  -41.6230   19.5840  -27.8300 C   0  0  0  0  0  2  0  0  0  0  0  0
  -37.9420   17.1950  -26.2030 C   0  0  0  0  0  3  0  0  0  0  0  0
  -40.5940   17.1800  -26.5910 C   0  0  0  0  0  3  0  0  0  0  0  0
  -38.7850   16.3890  -25.3890 C   0  0  0  0  0  0  0  0  0  0  0  0
  -39.7640   18.0580  -27.3580 C   0  0  0  0  0  0  0  0  0  0  0  0
  -40.1220   16.3560  -25.6170 N   0  0  0  0  0  0  0  0  0  0  0  0
  -38.4200   18.0170  -27.1830 N   0  0  0  0  0  0  0  0  0  0  0  0
  -43.1170   18.0350  -30.9870 C   0  0  0  0  0  0  0  0  0  0  0  0
  -44.4210   18.5200  -31.2260 C   0  0  0  0  0  3  0  0  0  0  0  0
  -45.2620   17.8330  -32.1430 C   0  0  0  0  0  0  0  0  0  0  0  0
  -44.7960   16.7170  -32.7730 N   0  0  0  0  0  0  0  0  0  0  0  0
  -43.5710   16.2330  -32.5490 N   0  0  0  0  0  0  0  0  0  0  0  0
  -42.7490   16.8630  -31.6870 C   0  0  0  0  0  0  0  0  0  0  0  0
  -41.5190   16.2680  -31.4660 N   0  0  0  0  0  0  0  0  0  0  0  0
  -41.0790   16.6070  -30.6210 H   0  0  0  0  0  0  0  0  0  0  0  0
  -41.4880   15.2640  -31.5830 H   0  0  0  0  0  0  0  0  0  0  0  0
  -46.6700   18.2560  -32.4670 C   0  0  0  0  0  0  0  0  0  0  0  0
  -47.5600   17.5270  -33.3220 C   0  0  0  0  0  0  0  0  0  0  0  0
  -48.8750   17.9760  -33.5640 C   0  0  0  0  0  3  0  0  0  0  0  0
  -49.3510   19.1550  -32.9730 C   0  0  0  0  0  3  0  0  0  0  0  0
  -48.5020   19.8930  -32.1380 C   0  0  0  0  0  3  0  0  0  0  0  0
  -47.1890   19.4490  -31.8960 C   0  0  0  0  0  3  0  0  0  0  0  0
  -47.2100   16.3660  -33.9530 O   0  0  0  0  0  0  0  0  0  0  0  0
  -46.3010   16.1390  -33.7550 H   0  0  0  0  0  0  0  0  0  0  0  0
  1  2  1  0
  2  3  2  0
  3  9  1  0
  4  6  2  0
  5  4  1  0
  5  1  2  0
  6  3  1  0
  7 12  1  0
  7 10  1  0
  8 10  2  0
  9 11  1  0
  9  7  2  0
 11  8  1  0
 13  5  1  0
 14 15  2  0
 14 16  1  0
 16 13  1  0
 17 16  1  0
 18 22  2  0
 18 21  1  0
 19 23  1  0
 19 14  1  0
 20 21  1  0
 20 24  1  0
 21 19  1  0
 24 25  1  0
 24 23  1  0
 26 25  1  0
 27 39  1  0
 27 18  1  0
 28 31  1  0
 28 27  1  0
 29 28  1  0
 30 29  2  0
 32 33  1  1
 32 29  1  0
 34 35  1  0
 34 32  1  0
 35 32  1  0
 39 37  1  6
 39 38  1  0
 39 36  1  0
 40  1  1  0
 41 40  1  0
 42 47  1  0
 42 51  1  0
 43 42  1  0
 44 45  1  0
 44 43  1  0
 45 46  1  0
 46 47  1  0
 48 50  1  0
 49 52  1  0
 50 41  1  0
 51 53  1  0
 51 49  2  0
 52 50  2  0
 53 48  2  0
 54 45  1  0
 55 54  1  0
 56 55  2  0
 57 58  2  0
 57 56  1  0
 58 59  1  0
 59 60  1  0
 59 54  2  0
 60 61  1  0
 62 60  1  0
 63 56  1  0
 63 68  1  0
 64 63  2  0
 65 64  1  0
 65 66  2  0
 66 67  1  0
 67 68  2  0
 69 70  1  0
 69 64  1  0
M  ISO  4  40 101  41 101  42 100  51 100
M  END
>  <TORSDO>  (102) 
F 15

>  <SCORE>  (102) 
-14.600

>  <name>  (102) 
101

>  <ligand_id>  (102) 
101

>  <original_smiles>  (102) 
[H]Oc1c([H])c([H])c([H])c([H])c1-c1nnc(N([H])[H])c(N2C([H])([H])C([H])([H])N(c3nc([H])c(C([H])([H])Oc4c([H])c(-c5sc([H])nc5C([H])([H])[H])c([H])c([H])c4C([H])([H])N([H])C(=O)C4([H])N(C(=O)C([H])(N([H])C(=O)C5(F)C([H])([H])C5([H])[H])C(C([H])([H])[H])(C([H])([H])[H])C([H])([H])[H])C([H])([H])C([H])(O[H])C4([H])[H])nc3[H])C([H])([H])C2([H])[H])c1[H]

>  <smiles>  (102) 
[H]Oc1c([H])c([H])c([H])c([H])c1-c1nnc(N([H])[H])c(N2C([H])([H])C([H])([H])N(c3nc([H])c(C([H])([H])Oc4c([H])c(-c5sc([H])nc5C([H])([H])[H])c([H])c([H])c4C([H])([H])N([H])C(=O)C4([H])N(C(=O)C([H])(N([H])C(=O)C5(F)C([H])([H])C5([H])[H])C(C([H])([H])[H])(C([H])([H])[H])C([H])([H])[H])C([H])([H])C([H])(O[H])C4([H])[H])nc3[H])C([H])([H])C2([H])[H])c1[H]

$$$$
102:0:0
     RDKit          3D

 74 81  0  0  1  0  0  0  0  0999 V2000
  -37.4770   13.5370  -23.7280 C   0  0  0  0  0  0  0  0  0  0  0  0
  -36.7870   13.4190  -22.4990 C   0  0  0  0  0  3  0  0  0  0  0  0
  -35.4950   12.8560  -22.4140 C   0  0  0  0  0  0  0  0  0  0  0  0
  -35.5660   12.4880  -24.8290 C   0  0  0  0  0  3  0  0  0  0  0  0
  -36.8720   13.0260  -24.9110 C   0  0  0  0  0  0  0  0  0  0  0  0
  -34.8830   12.4100  -23.6030 C   0  0  0  0  0  3  0  0  0  0  0  0
  -35.2730   12.2090  -19.9250 C   0  0  0  0  0  0  0  0  0  0  0  0
  -33.1180   12.6120  -19.3510 C   0  0  0  0  0  3  0  0  0  0  0  0
  -34.8050   12.6970  -21.1300 C   0  0  0  0  0  0  0  0  0  0  0  0
  -34.3000   12.1660  -18.9220 N   0  0  0  0  0  0  0  0  0  0  0  0
  -33.1160   13.1400  -21.0220 S   0  0  0  0  0  0  0  0  0  0  0  0
  -36.6440   11.7130  -19.5940 C   0  0  0  0  0  1  0  0  0  0  0  0
  -37.6300   12.9780  -26.2420 C   0  0  0  0  0  2  0  0  0  0  0  0
  -36.2420   13.7330  -28.1450 C   0  0  0  0  0  0  0  0  0  0  0  0
  -36.5130   14.9240  -27.9940 O   0  0  0  0  0  0  0  0  0  0  0  0
  -36.7760   12.7590  -27.4000 N   0  0  0  0  0  0  0  0  0  0  0  0
  -36.5220   11.8020  -27.6060 H   0  0  0  0  0  0  0  0  0  0  0  0
  -36.1380   14.4500  -31.1790 C   0  0  0  0  0  0  0  0  0  0  0  0
  -35.1920   13.2870  -29.1740 C   0  0  0  0  0  3  0  0  0  0  0  0
  -33.6850   14.4920  -30.6290 C   0  0  0  0  0  2  0  0  0  0  0  0
  -35.0910   14.1510  -30.3660 N   0  0  0  0  0  0  0  0  0  0  0  0
  -37.2690   13.9890  -30.9770 O   0  0  0  0  0  0  0  0  0  0  0  0
  -33.7990   13.3210  -28.5190 C   0  0  0  0  0  2  0  0  0  0  0  0
  -32.8530   13.6580  -29.6540 C   0  0  0  0  0  3  0  0  0  0  0  0
  -32.4150   12.4790  -30.3090 O   0  0  0  0  0  0  0  0  0  0  0  0
  -33.1740   11.9990  -30.6260 H   0  0  0  0  0  0  0  0  0  0  0  0
  -35.9270   15.3460  -32.4300 C   0  0  0  0  0  3  0  0  0  0  0  0
  -35.9270   17.3780  -30.8490 C   0  0  0  0  0  1  0  0  0  0  0  0
  -35.7210   17.7260  -33.3050 C   0  0  0  0  0  1  0  0  0  0  0  0
  -37.8880   17.0350  -32.3870 C   0  0  0  0  0  1  0  0  0  0  0  0
  -36.3720   16.8350  -32.2290 C   0  0  1  0  0  0  0  0  0  0  0  0
  -36.6640   14.7350  -33.5480 N   0  0  0  0  0  0  0  0  0  0  0  0
  -36.1390   14.2290  -34.6740 C   0  0  0  0  0  0  0  0  0  0  0  0
  -34.9350   14.2970  -34.9270 O   0  0  0  0  0  0  0  0  0  0  0  0
  -37.6540   14.5790  -33.4130 H   0  0  0  0  0  0  0  0  0  0  0  0
  -37.1260   13.5720  -35.6000 C   0  0  1  0  0  0  0  0  0  0  0  0
  -38.3700   13.3570  -35.0290 F   0  0  0  0  0  0  0  0  0  0  0  0
  -37.0960   13.9050  -37.0720 C   0  0  0  0  0  2  0  0  0  0  0  0
  -36.6490   12.5410  -36.5940 C   0  0  0  0  0  2  0  0  0  0  0  0
  -38.7400   14.0880  -23.6810 O   0  0  0  0  0  0  0  0  0  0  0  0
  -40.2600   14.7690  -25.3410 C   0  0  0  0  0  3  0  0  0  0  0  0
  -40.6930   15.6110  -26.3830 C   0  0  0  0  0  0  0  0  0  0  0  0
  -40.0370   16.8520  -26.6180 C   0  0  0  0  0  0  0  0  0  0  0  0
  -38.5900   16.3880  -24.6470 C   0  0  0  0  0  0  0  0  0  0  0  0
  -39.1650   15.0960  -24.5300 C   0  0  0  0  0  0  0  0  0  0  0  0
  -39.0380   17.2630  -25.6830 C   0  0  0  0  0  0  0  0  0  0  0  0
  -41.8130   15.0610  -27.2520 C   0  0  0  0  0  1  0  0  0  0  0  0
  -37.4750   16.8290  -23.6980 C   0  0  0  0  0  1  0  0  0  0  0  0
  -38.2800   18.8110  -25.8520 Cl  0  0  0  0  0  0  0  0  0  0  0  0
  -39.0190   17.0080  -28.8560 C   0  0  0  0  0  1  0  0  0  0  0  0
  -40.1610   17.5470  -28.0030 C   0  0  0  0  0  3  0  0  0  0  0  0
  -40.3140   19.0360  -28.0930 N   0  0  0  0  0  0  0  0  0  0  0  0
  -40.0980   19.6620  -29.4300 C   0  0  0  0  0  2  0  0  0  0  0  0
  -41.2920   19.5770  -30.4340 C   0  0  0  0  0  2  0  0  0  0  0  0
  -42.3210   18.6600  -29.9600 N   0  0  0  0  0  0  0  0  0  0  0  0
  -42.7910   18.9170  -28.5970 C   0  0  0  0  0  2  0  0  0  0  0  0
  -41.6580   19.4650  -27.6740 C   0  0  0  0  0  2  0  0  0  0  0  0
  -43.1790   18.0700  -30.9150 C   0  0  0  0  0  0  0  0  0  0  0  0
  -44.4950   18.5280  -31.1510 C   0  0  0  0  0  3  0  0  0  0  0  0
  -45.2990   17.8700  -32.1200 C   0  0  0  0  0  0  0  0  0  0  0  0
  -44.7920   16.8070  -32.8070 N   0  0  0  0  0  0  0  0  0  0  0  0
  -43.5560   16.3460  -32.5870 N   0  0  0  0  0  0  0  0  0  0  0  0
  -42.7670   16.9480  -31.6750 C   0  0  0  0  0  0  0  0  0  0  0  0
  -41.5150   16.3840  -31.4870 N   0  0  0  0  0  0  0  0  0  0  0  0
  -41.0230   16.6880  -30.6570 H   0  0  0  0  0  0  0  0  0  0  0  0
  -41.3340   15.4480  -31.8120 H   0  0  0  0  0  0  0  0  0  0  0  0
  -46.7170   18.2700  -32.4420 C   0  0  0  0  0  0  0  0  0  0  0  0
  -47.5890   17.5360  -33.3130 C   0  0  0  0  0  0  0  0  0  0  0  0
  -48.9120   17.9620  -33.5530 C   0  0  0  0  0  3  0  0  0  0  0  0
  -49.4110   19.1200  -32.9410 C   0  0  0  0  0  3  0  0  0  0  0  0
  -48.5830   19.8650  -32.0910 C   0  0  0  0  0  3  0  0  0  0  0  0
  -47.2610   19.4420  -31.8510 C   0  0  0  0  0  3  0  0  0  0  0  0
  -47.2110   16.3940  -33.9610 O   0  0  0  0  0  0  0  0  0  0  0  0
  -46.2990   16.1760  -33.7570 H   0  0  0  0  0  0  0  0  0  0  0  0
  1 40  1  0
  1  2  1  0
  2  3  2  0
  3  9  1  0
  4  6  2  0
  5  4  1  0
  5  1  2  0
  6  3  1  0
  7 12  1  0
  7 10  1  0
  8 10  2  0
  9 11  1  0
  9  7  2  0
 11  8  1  0
 13  5  1  0
 14 15  2  0
 14 16  1  0
 16 13  1  0
 17 16  1  0
 18 22  2  0
 18 21  1  0
 19 23  1  0
 19 14  1  0
 20 21  1  0
 20 24  1  0
 21 19  1  0
 24 25  1  0
 24 23  1  0
 26 25  1  0
 27 31  1  0
 27 18  1  0
 31 29  1  6
 30 31  1  0
 31 28  1  0
 32 35  1  0
 32 27  1  0
 33 32  1  0
 34 33  2  0
 36 37  1  1
 36 33  1  0
 38 39  1  0
 38 36  1  0
 39 36  1  0
 41 45  1  0
 42 41  2  0
 43 42  1  0
 43 46  2  0
 44 45  2  0
 44 48  1  0
 45 40  1  0
 46 44  1  0
 47 42  1  0
 49 46  1  0
 51 50  1  0
 51 43  1  0
 52 51  1  0
 52 57  1  0
 53 52  1  0
 54 55  1  0
 54 53  1  0
 55 56  1  0
 56 57  1  0
 58 55  1  0
 59 58  1  0
 60 59  2  0
 61 62  2  0
 61 60  1  0
 62 63  1  0
 63 64  1  0
 63 58  2  0
 64 65  1  0
 66 64  1  0
 67 60  1  0
 67 72  1  0
 68 67  2  0
 69 68  1  0
 69 70  2  0
 70 71  1  0
 71 72  2  0
 73 74  1  0
 73 68  1  0
M  ISO  4  40 101  45 101  51 100  52 100
M  END
>  <TORSDO>  (103) 
F 16

>  <SCORE>  (103) 
-14.678

>  <name>  (103) 
102

>  <ligand_id>  (103) 
102

>  <original_smiles>  (103) 
[H]Oc1c([H])c([H])c([H])c([H])c1-c1nnc(N([H])[H])c(N2C([H])([H])C([H])([H])N(C([H])(c3c(Cl)c(C([H])([H])[H])c(Oc4c([H])c(-c5sc([H])nc5C([H])([H])[H])c([H])c([H])c4C([H])([H])N([H])C(=O)C4([H])N(C(=O)C([H])(N([H])C(=O)C5(F)C([H])([H])C5([H])[H])C(C([H])([H])[H])(C([H])([H])[H])C([H])([H])[H])C([H])([H])C([H])(O[H])C4([H])[H])c([H])c3C([H])([H])[H])C([H])([H])[H])C([H])([H])C2([H])[H])c1[H]

>  <smiles>  (103) 
[H]Oc1c([H])c([H])c([H])c([H])c1-c1nnc(N([H])[H])c(N2C([H])([H])C([H])([H])N(C([H])(c3c(Cl)c(C([H])([H])[H])c(Oc4c([H])c(-c5sc([H])nc5C([H])([H])[H])c([H])c([H])c4C([H])([H])N([H])C(=O)C4([H])N(C(=O)C([H])(N([H])C(=O)C5(F)C([H])([H])C5([H])[H])C(C([H])([H])[H])(C([H])([H])[H])C([H])([H])[H])C([H])([H])C([H])(O[H])C4([H])[H])c([H])c3C([H])([H])[H])C([H])([H])[H])C([H])([H])C2([H])[H])c1[H]

$$$$
103:0:0
     RDKit          3D

 80 81  0  0  1  0  0  0  0  0999 V2000
  -35.8150   15.0180  -26.9870 O   0  0  0  0  0 15  0  0  0  0  0  0
  -37.9250   13.7690  -31.8540 C   0  0  0  0  0 15  0  0  0  0  0  0
  -35.7290   13.7670  -31.1400 C   0  0  0  0  0 15  0  0  0  0  0  0
  -35.1920   16.9510  -31.2700 C   0  0  0  0  0  2  0  0  0  0  0  0
  -38.7850   15.8430  -32.2560 C   0  0  0  0  0  1  0  0  0  0  0  0
  -37.2630   17.3790  -32.4270 C   0  0  0  0  0  1  0  0  0  0  0  0
  -35.1440   15.5300  -29.4650 C   0  0  0  0  0  1  0  0  0  0  0  0
  -37.0050   17.9340  -33.8800 C   0  0  0  0  0  1  0  0  0  0  0  0
  -40.3290   15.0890  -30.2970 C   0  0  0  0  0  3  0  0  0  0  0  0
  -41.1110   16.6620  -28.3880 C   0  0  0  0  0  0  0  0  0  0  0  0
  -39.8890   16.1600  -31.0250 C   0  0  0  0  0  3  0  0  0  0  0  0
  -40.8920   17.8000  -29.1510 C   0  0  0  0  0  0  0  0  0  0  0  0
  -40.8750   15.2830  -28.9170 C   0  0  0  0  0  0  0  0  0  0  0  0
  -40.8570   18.3240  -31.7140 C   0  0  0  0  0  1  0  0  0  0  0  0
  -40.4010   17.4970  -30.5840 N   0  0  0  0  0  0  0  0  0  0  0  0
  -41.1230   14.2900  -28.2190 O   0  0  0  0  0  0  0  0  0  0  0  0
  -40.1480   13.4360  -30.8080 Cl  0  0  0  0  0  0  0  0  0  0  0  0
  -41.6070   16.6550  -26.7210 Cl  0  0  0  0  0  0  0  0  0  0  0  0
  -41.0100   19.1780  -28.4750 N   0  0  0  0  0  0  0  0  0  0  0  0
  -40.7800   20.3400  -29.3240 C   0  0  0  0  0  2  0  0  0  0  0  0
  -42.0280   20.4810  -30.2330 C   0  0  0  0  0  2  0  0  0  0  0  0
  -43.1060   19.5820  -29.7930 N   0  0  0  0  0  0  0  0  0  0  0  0
  -43.4250   19.7340  -28.3720 C   0  0  0  0  0  2  0  0  0  0  0  0
  -42.0960   19.7210  -27.5760 C   0  0  0  0  0  2  0  0  0  0  0  0
  -43.8210   18.6590  -30.5940 C   0  0  0  0  0  0  0  0  0  0  0  0
  -45.0910   19.0500  -30.9870 C   0  0  0  0  0  3  0  0  0  0  0  0
  -45.8420   18.1750  -31.8030 C   0  0  0  0  0  0  0  0  0  0  0  0
  -45.3970   16.9490  -32.1310 N   0  0  0  0  0  0  0  0  0  0  0  0
  -44.2290   16.5310  -31.7750 N   0  0  0  0  0  0  0  0  0  0  0  0
  -43.4870   17.3590  -31.0890 C   0  0  0  0  0  0  0  0  0  0  0  0
  -42.3630   16.7120  -31.2310 N   0  0  0  0  0  0  0  0  0  0  0  0
  -41.5830   17.3110  -30.9890 H   0  0  0  0  0  0  0  0  0  0  0  0
  -42.2820   16.3620  -32.1750 H   0  0  0  0  0  0  0  0  0  0  0  0
  -47.1700   18.4680  -32.3470 C   0  0  0  0  0  0  0  0  0  0  0  0
  -47.8880   17.5870  -33.2230 C   0  0  0  0  0  0  0  0  0  0  0  0
  -49.1710   17.9320  -33.6610 C   0  0  0  0  0  3  0  0  0  0  0  0
  -49.7610   19.1380  -33.2630 C   0  0  0  0  0  3  0  0  0  0  0  0
  -49.0540   20.0250  -32.4410 C   0  0  0  0  0  3  0  0  0  0  0  0
  -47.7720   19.6960  -31.9930 C   0  0  0  0  0  3  0  0  0  0  0  0
  -47.4090   16.3890  -33.6880 O   0  0  0  0  0  0  0  0  0  0  0  0
  -46.5400   16.2300  -33.3190 H   0  0  0  0  0  0  0  0  0  0  0  0
  -35.8260   14.0590  -25.2700 C   0  0  0  0  0  2  0  0  0  0  0  0
  -35.6900   14.1400  -23.6060 C   0  0  0  0  0  3  0  0  0  0  0  0
  -35.1740   13.1080  -22.5070 C   0  0  0  0  0  0  0  0  0  0  0  0
  -35.2200   11.7420  -24.3850 C   0  0  0  0  0  3  0  0  0  0  0  0
  -36.1660   12.6510  -24.9090 C   0  0  0  0  0  3  0  0  0  0  0  0
  -34.7210   11.9660  -23.1290 C   0  0  0  0  0  3  0  0  0  0  0  0
  -35.1120   12.3010  -19.7660 C   0  0  0  0  0  0  0  0  0  0  0  0
  -32.9870   12.7090  -19.0700 C   0  0  0  0  0  3  0  0  0  0  0  0
  -34.7000   12.9680  -20.9790 C   0  0  0  0  0  0  0  0  0  0  0  0
  -34.1650   12.2270  -18.7130 N   0  0  0  0  0  0  0  0  0  0  0  0
  -32.9760   13.3130  -20.7240 S   0  0  0  0  0  0  0  0  0  0  0  0
  -36.3770   11.6060  -19.3420 C   0  0  0  0  0  1  0  0  0  0  0  0
  -37.3760   11.8670  -25.3560 C   0  0  0  0  0  2  0  0  0  0  0  0
  -36.8610   12.3250  -27.4300 C   0  0  0  0  0  0  0  0  0  0  0  0
  -37.6970   13.2780  -27.2770 O   0  0  0  0  0  0  0  0  0  0  0  0
  -36.9470   11.3670  -26.6050 N   0  0  0  0  0  0  0  0  0  0  0  0
  -36.2950   10.5940  -26.6640 H   0  0  0  0  0  0  0  0  0  0  0  0
  -36.7400   14.3050  -29.2430 C   0  0  0  0  0  0  0  0  0  0  0  0
  -35.6490   12.2130  -28.3560 C   0  0  0  0  0  3  0  0  0  0  0  0
  -33.8880   13.6240  -28.3810 C   0  0  0  0  0  2  0  0  0  0  0  0
  -35.5870   13.4910  -28.6130 N   0  0  0  0  0  0  0  0  0  0  0  0
  -37.8200   13.8000  -29.4200 O   0  0  0  0  0  0  0  0  0  0  0  0
  -34.2060   11.8080  -27.7900 C   0  0  0  0  0  2  0  0  0  0  0  0
  -33.0270   12.5720  -28.3180 C   0  0  0  0  0  3  0  0  0  0  0  0
  -32.4130   12.3440  -29.5940 O   0  0  0  0  0  0  0  0  0  0  0  0
  -33.0850   12.0420  -30.2000 H   0  0  0  0  0  0  0  0  0  0  0  0
  -36.5730   15.7410  -30.2160 C   0  0  0  0  0  3  0  0  0  0  0  0
  -35.4170   15.8350  -32.0140 N   0  0  0  0  0  2  0  0  0  0  0  0
  -35.2750   15.3640  -33.3890 C   0  0  0  0  0  0  0  0  0  0  0  0
  -34.1950   15.6890  -33.8220 O   0  0  0  0  0  0  0  0  0  0  0  0
  -34.6120   16.4330  -31.8470 H   0  0  0  0  0  0  0  0  0  0  0  0
  -36.1540   14.4240  -34.4190 C   0  0  1  0  0  0  0  0  0  0  0  0
  -37.2160   13.6200  -34.0010 F   0  0  0  0  0  0  0  0  0  0  0  0
  -36.2030   14.7850  -35.8940 C   0  0  0  0  0  2  0  0  0  0  0  0
  -35.3660   13.6290  -35.4440 C   0  0  0  0  0  2  0  0  0  0  0  0
  -36.2660   18.1500  -28.2980 C   0  0  0  0  0  1  0  0  0  0  0  0
  -37.6780   18.8290  -29.8330 C   0  0  0  0  0  1  0  0  0  0  0  0
  -37.8260   16.7550  -28.1420 C   0  0  0  0  0  1  0  0  0  0  0  0
  -37.1910   17.2700  -29.2800 C   0  0  1  0  0  0  0  0  0  0  0  0
  8  6  1  0
  9 17  1  0
  9 13  1  0
 10 18  1  0
 11  5  1  0
 11 15  1  0
 11  9  1  0
 12 19  1  0
 12 10  2  0
 13 10  1  0
 13 16  2  0
 14 15  1  0
 15 12  1  0
 19 24  1  0
 20 19  1  0
 21 22  1  0
 21 20  1  0
 22 23  1  0
 23 24  1  0
 25 22  1  0
 26 25  1  0
 27 26  2  0
 28 27  1  0
 28 29  2  0
 29 30  1  0
 30 25  2  0
 31 30  1  0
 31 32  1  0
 33 31  1  0
 34 39  1  0
 34 27  1  0
 35 34  2  0
 36 37  2  0
 36 35  1  0
 37 38  1  0
 38 39  2  0
 40 41  1  0
 40 35  1  0
 42 46  1  0
 42 43  1  0
 43 44  2  0
 44 50  1  0
 45 47  2  0
 46 54  1  0
 46 45  1  0
 47 44  1  0
 48 53  1  0
 48 51  1  0
 49 51  2  0
 50 52  1  0
 50 48  2  0
 52 49  1  0
 55 56  2  0
 55 57  1  0
 57 54  1  0
 58 57  1  0
 59 62  1  0
 60 64  1  0
 60 55  1  0
 61 65  1  0
 62 61  1  0
 62 60  1  0
 63 59  2  0
 65 66  1  0
 65 64  1  0
 67 66  1  0
 68  7  1  0
 68 80  1  0
 68 59  1  0
 69  4  1  0
 70 69  1  0
 71 70  2  0
 72  4  1  0
 73 74  1  1
 73 70  1  0
 75 76  1  0
 75 73  1  0
 76 73  1  0
 80 78  1  6
 80 77  1  0
 80 79  1  0
M  ISO  4   1 101   7 101  12 100  19 100
M  END
>  <TORSDO>  (104) 
F 16

>  <SCORE>  (104) 
-3.565

>  <name>  (104) 
103

>  <ligand_id>  (104) 
103

>  <original_smiles>  (104) 
[H]Oc1c([H])c([H])c([H])c([H])c1-c1nnc(N([H])[H])c(N2C([H])([H])C([H])([H])N(c3c(Cl)c(=O)c(Cl)c(C4([H])C([H])([H])C([H])([H])C([H])(Oc5c([H])c(-c6sc([H])nc6C([H])([H])[H])c([H])c([H])c5C([H])([H])N([H])C(=O)C5([H])N(C(=O)C([H])(N([H])C(=O)C6(F)C([H])([H])C6([H])[H])C(C([H])([H])[H])(C([H])([H])[H])C([H])([H])[H])C([H])([H])C([H])(O[H])C5([H])[H])C([H])([H])C4([H])C([H])([H])[H])n3C([H])([H])[H])C([H])([H])C2([H])[H])c1[H]

>  <smiles>  (104) 
[H]Oc1c([H])c([H])c([H])c([H])c1-c1nnc(N([H])[H])c(N2C([H])([H])C([H])([H])N(c3c(Cl)c(=O)c(Cl)c(C4([H])C([H])([H])C([H])([H])C([H])(Oc5c([H])c(-c6sc([H])nc6C([H])([H])[H])c([H])c([H])c5C([H])([H])N([H])C(=O)C5([H])N(C(=O)C([H])(N([H])C(=O)C6(F)C([H])([H])C6([H])[H])C(C([H])([H])[H])(C([H])([H])[H])C([H])([H])[H])C([H])([H])C([H])(O[H])C5([H])[H])C([H])([H])C4([H])C([H])([H])[H])n3C([H])([H])[H])C([H])([H])C2([H])[H])c1[H]

$$$$
104:0:0
     RDKit          3D

 77 84  0  0  1  0  0  0  0  0999 V2000
  -37.4370   14.0560  -23.8360 C   0  0  0  0  0  0  0  0  0  0  0  0
  -36.7680   13.8410  -22.5900 C   0  0  0  0  0  3  0  0  0  0  0  0
  -35.6040   13.0170  -22.3820 C   0  0  0  0  0  0  0  0  0  0  0  0
  -35.7490   12.3610  -24.7120 C   0  0  0  0  0  3  0  0  0  0  0  0
  -36.9470   13.1500  -24.8550 C   0  0  0  0  0  0  0  0  0  0  0  0
  -35.0690   12.2950  -23.4760 C   0  0  0  0  0  3  0  0  0  0  0  0
  -35.2780   12.3480  -19.8960 C   0  0  0  0  0  0  0  0  0  0  0  0
  -33.0840   12.6410  -19.3920 C   0  0  0  0  0  3  0  0  0  0  0  0
  -34.8590   12.8450  -21.1160 C   0  0  0  0  0  0  0  0  0  0  0  0
  -34.2740   12.2570  -18.9240 N   0  0  0  0  0  0  0  0  0  0  0  0
  -33.1440   13.2070  -21.0560 S   0  0  0  0  0  0  0  0  0  0  0  0
  -36.6510   11.8770  -19.5300 C   0  0  0  0  0  1  0  0  0  0  0  0
  -38.5660   14.9810  -24.2290 O   0  0  0  0  0  0  0  0  0  0  0  0
  -39.1110   16.5250  -23.8350 C   0  0  0  0  0  2  0  0  0  0  0  0
  -40.1800   17.8650  -24.3730 C   0  0  0  0  0  2  0  0  0  0  0  0
  -39.5020   20.5420  -25.5070 C   0  0  0  0  0  0  0  0  0  0  0  0
  -40.1460   19.2800  -25.2730 N   0  0  0  0  0  0  0  0  0  0  0  0
  -39.6850   21.3060  -26.4470 O   0  0  0  0  0  0  0  0  0  0  0  0
  -40.7950   19.2490  -26.0980 H   0  0  0  0  0  0  0  0  0  0  0  0
  -37.4570   18.9220  -26.2110 C   0  0  0  0  0  0  0  0  0  0  0  0
  -38.1700   20.7970  -24.8170 C   0  0  0  0  0  3  0  0  0  0  0  0
  -38.1970   20.2390  -23.5130 C   0  0  2  0  0  0  0  0  0  0  0  0
  -39.5280   20.9230  -22.9420 C   0  0  0  0  0  1  0  0  0  0  0  0
  -37.3250   20.7610  -22.3060 C   0  0  0  0  0  1  0  0  0  0  0  0
  -37.4710   19.5780  -24.9010 N   0  0  0  0  0  0  0  0  0  0  0  0
  -36.5110   18.1170  -26.3420 O   0  0  0  0  0  0  0  0  0  0  0  0
  -38.4950   18.9450  -27.6590 C   0  0  0  0  0  2  0  0  0  0  0  0
  -39.9490   19.5110  -28.1840 N   0  0  0  0  0  0  0  0  0  0  0  0
  -39.9000   19.5840  -29.7000 C   0  0  0  0  0  2  0  0  0  0  0  0
  -41.2650   19.7450  -30.5060 C   0  0  0  0  0  2  0  0  0  0  0  0
  -42.3290   18.7780  -30.1580 N   0  0  0  0  0  0  0  0  0  0  0  0
  -42.4550   18.6040  -28.6850 C   0  0  0  0  0  2  0  0  0  0  0  0
  -41.0620   18.5400  -28.0530 C   0  0  0  0  0  2  0  0  0  0  0  0
  -43.2080   18.1340  -31.1040 C   0  0  0  0  0  0  0  0  0  0  0  0
  -44.5680   18.5030  -31.3010 C   0  0  0  0  0  3  0  0  0  0  0  0
  -45.4060   17.7980  -32.2370 C   0  0  0  0  0  0  0  0  0  0  0  0
  -44.8710   16.7740  -32.9580 N   0  0  0  0  0  0  0  0  0  0  0  0
  -43.6180   16.3950  -32.7780 N   0  0  0  0  0  0  0  0  0  0  0  0
  -42.8000   17.0330  -31.8920 C   0  0  0  0  0  0  0  0  0  0  0  0
  -41.5440   16.4660  -31.8010 N   0  0  0  0  0  0  0  0  0  0  0  0
  -41.1350   16.6090  -30.8810 H   0  0  0  0  0  0  0  0  0  0  0  0
  -41.5530   15.5190  -32.1170 H   0  0  0  0  0  0  0  0  0  0  0  0
  -46.8470   18.1200  -32.5440 C   0  0  0  0  0  0  0  0  0  0  0  0
  -47.7030   17.3760  -33.4370 C   0  0  0  0  0  0  0  0  0  0  0  0
  -49.0460   17.7500  -33.6500 C   0  0  0  0  0  3  0  0  0  0  0  0
  -49.6030   18.8600  -32.9890 C   0  0  0  0  0  3  0  0  0  0  0  0
  -48.7950   19.6180  -32.1320 C   0  0  0  0  0  3  0  0  0  0  0  0
  -47.4450   19.2490  -31.9300 C   0  0  0  0  0  3  0  0  0  0  0  0
  -47.3180   16.2690  -34.1390 O   0  0  0  0  0  0  0  0  0  0  0  0
  -46.4050   16.0420  -33.9860 H   0  0  0  0  0  0  0  0  0  0  0  0
  -37.6930   13.1090  -26.1820 C   0  0  0  0  0  2  0  0  0  0  0  0
  -36.2620   13.7660  -28.0710 C   0  0  0  0  0  0  0  0  0  0  0  0
  -36.4680   14.9560  -27.8900 O   0  0  0  0  0  0  0  0  0  0  0  0
  -36.8670   12.8230  -27.3560 N   0  0  0  0  0  0  0  0  0  0  0  0
  -36.8020   11.8490  -27.5940 H   0  0  0  0  0  0  0  0  0  0  0  0
  -36.1780   14.4310  -31.1030 C   0  0  0  0  0  0  0  0  0  0  0  0
  -35.2300   13.2780  -29.0960 C   0  0  0  0  0  3  0  0  0  0  0  0
  -33.7370   14.4610  -30.5880 C   0  0  0  0  0  2  0  0  0  0  0  0
  -35.1370   14.1160  -30.2970 N   0  0  0  0  0  0  0  0  0  0  0  0
  -37.3070   13.9690  -30.9030 O   0  0  0  0  0  0  0  0  0  0  0  0
  -33.8350   13.2960  -28.4680 C   0  0  0  0  0  2  0  0  0  0  0  0
  -32.8910   13.6480  -29.6100 C   0  0  0  0  0  3  0  0  0  0  0  0
  -32.4470   12.4800  -30.2920 O   0  0  0  0  0  0  0  0  0  0  0  0
  -33.2140   12.0280  -30.6330 H   0  0  0  0  0  0  0  0  0  0  0  0
  -35.9810   15.3580  -32.3340 C   0  0  0  0  0  3  0  0  0  0  0  0
  -36.7440   14.7670  -33.4480 N   0  0  0  0  0  0  0  0  0  0  0  0
  -36.2350   14.2140  -34.5580 C   0  0  0  0  0  0  0  0  0  0  0  0
  -35.0280   14.2160  -34.7990 O   0  0  0  0  0  0  0  0  0  0  0  0
  -37.7380   14.6580  -33.2950 H   0  0  0  0  0  0  0  0  0  0  0  0
  -37.2370   13.5780  -35.4910 C   0  0  1  0  0  0  0  0  0  0  0  0
  -38.5130   13.4610  -34.9570 F   0  0  0  0  0  0  0  0  0  0  0  0
  -37.1390   13.8580  -36.9730 C   0  0  0  0  0  2  0  0  0  0  0  0
  -36.7910   12.4890  -36.4350 C   0  0  0  0  0  2  0  0  0  0  0  0
  -35.7720   17.4590  -30.8510 C   0  0  0  0  0  1  0  0  0  0  0  0
  -36.0210   17.7140  -33.3120 C   0  0  0  0  0  1  0  0  0  0  0  0
  -37.9760   16.9820  -31.9580 C   0  0  0  0  0  1  0  0  0  0  0  0
  -36.4460   16.8460  -32.1000 C   0  0  1  0  0  0  0  0  0  0  0  0
  1  2  1  0
  2  3  2  0
  3  9  1  0
  4  6  2  0
  5  4  1  0
  5  1  2  0
  6  3  1  0
  7 12  1  0
  7 10  1  0
  8 10  2  0
  9 11  1  0
  9  7  2  0
 11  8  1  0
 13  1  1  0
 13 14  1  0
 15 14  1  0
 16 17  1  0
 17 15  1  0
 18 16  2  0
 19 17  1  0
 20 25  1  0
 21 16  1  0
 21 22  1  0
 22 23  1  1
 22 24  1  0
 25 21  1  0
 25 22  1  0
 26 20  2  0
 27 20  1  0
 28 33  1  0
 28 27  1  0
 29 28  1  0
 30 31  1  0
 30 29  1  0
 31 32  1  0
 32 33  1  0
 34 31  1  0
 35 34  1  0
 36 35  2  0
 37 38  2  0
 37 36  1  0
 38 39  1  0
 39 40  1  0
 39 34  2  0
 40 41  1  0
 42 40  1  0
 43 36  1  0
 43 48  1  0
 44 43  2  0
 45 44  1  0
 45 46  2  0
 46 47  1  0
 47 48  2  0
 49 50  1  0
 49 44  1  0
 51  5  1  0
 52 53  2  0
 52 54  1  0
 54 51  1  0
 55 54  1  0
 56 60  2  0
 56 59  1  0
 57 61  1  0
 57 52  1  0
 58 59  1  0
 58 62  1  0
 59 57  1  0
 62 63  1  0
 62 61  1  0
 64 63  1  0
 65 77  1  0
 65 56  1  0
 66 69  1  0
 66 65  1  0
 67 66  1  0
 68 67  2  0
 70 71  1  1
 70 67  1  0
 72 73  1  0
 72 70  1  0
 73 70  1  0
 77 75  1  6
 77 76  1  0
 77 74  1  0
M  ISO  4  13 101  14 101  27 100  28 100
M  END
>  <TORSDO>  (105) 
F 19

>  <SCORE>  (105) 
-15.334

>  <name>  (105) 
104

>  <ligand_id>  (105) 
104

>  <original_smiles>  (105) 
[H]Oc1c([H])c([H])c([H])c([H])c1-c1nnc(N([H])[H])c(N2C([H])([H])C([H])([H])N(C([H])([H])C(=O)N3C([H])(C(=O)N([H])C([H])([H])C([H])([H])Oc4c([H])c(-c5sc([H])nc5C([H])([H])[H])c([H])c([H])c4C([H])([H])N([H])C(=O)C4([H])N(C(=O)C([H])(N([H])C(=O)C5(F)C([H])([H])C5([H])[H])C(C([H])([H])[H])(C([H])([H])[H])C([H])([H])[H])C([H])([H])C([H])(O[H])C4([H])[H])C3(C([H])([H])[H])C([H])([H])[H])C([H])([H])C2([H])[H])c1[H]

>  <smiles>  (105) 
[H]Oc1c([H])c([H])c([H])c([H])c1-c1nnc(N([H])[H])c(N2C([H])([H])C([H])([H])N(C([H])([H])C(=O)N3C([H])(C(=O)N([H])C([H])([H])C([H])([H])Oc4c([H])c(-c5sc([H])nc5C([H])([H])[H])c([H])c([H])c4C([H])([H])N([H])C(=O)C4([H])N(C(=O)C([H])(N([H])C(=O)C5(F)C([H])([H])C5([H])[H])C(C([H])([H])[H])(C([H])([H])[H])C([H])([H])[H])C([H])([H])C([H])(O[H])C4([H])[H])C3(C([H])([H])[H])C([H])([H])[H])C([H])([H])C2([H])[H])c1[H]

$$$$
105:0:0
     RDKit          3D

 73 80  0  0  1  0  0  0  0  0999 V2000
  -37.3720   13.4720  -23.7020 C   0  0  0  0  0  0  0  0  0  0  0  0
  -36.6990   13.3720  -22.4680 C   0  0  0  0  0  3  0  0  0  0  0  0
  -35.4240   12.7820  -22.3830 C   0  0  0  0  0  0  0  0  0  0  0  0
  -35.5350   12.3060  -24.7820 C   0  0  0  0  0  3  0  0  0  0  0  0
  -36.8120   12.9030  -24.8660 C   0  0  0  0  0  0  0  0  0  0  0  0
  -34.8430   12.2650  -23.5590 C   0  0  0  0  0  3  0  0  0  0  0  0
  -35.1950   12.2490  -19.8730 C   0  0  0  0  0  0  0  0  0  0  0  0
  -33.0320   12.6450  -19.3360 C   0  0  0  0  0  3  0  0  0  0  0  0
  -34.7270   12.6750  -21.1010 C   0  0  0  0  0  0  0  0  0  0  0  0
  -34.2150   12.2340  -18.8790 N   0  0  0  0  0  0  0  0  0  0  0  0
  -33.0330   13.1030  -21.0270 S   0  0  0  0  0  0  0  0  0  0  0  0
  -36.5750   11.7920  -19.5110 C   0  0  0  0  0  1  0  0  0  0  0  0
  -37.5990   12.9150  -26.1780 C   0  0  0  0  0  2  0  0  0  0  0  0
  -36.2300   13.6870  -28.0910 C   0  0  0  0  0  0  0  0  0  0  0  0
  -36.4890   14.8800  -27.9210 O   0  0  0  0  0  0  0  0  0  0  0  0
  -36.7690   12.7100  -27.3580 N   0  0  0  0  0  0  0  0  0  0  0  0
  -36.5220   11.7550  -27.5830 H   0  0  0  0  0  0  0  0  0  0  0  0
  -36.1820   14.4380  -31.1070 C   0  0  0  0  0  0  0  0  0  0  0  0
  -35.1910   13.2520  -29.1370 C   0  0  0  0  0  3  0  0  0  0  0  0
  -33.7240   14.4930  -30.6010 C   0  0  0  0  0  2  0  0  0  0  0  0
  -35.1180   14.1300  -30.3200 N   0  0  0  0  0  0  0  0  0  0  0  0
  -37.3040   13.9610  -30.8970 O   0  0  0  0  0  0  0  0  0  0  0  0
  -33.7900   13.2960  -28.5040 C   0  0  0  0  0  2  0  0  0  0  0  0
  -32.8660   13.6660  -29.6460 C   0  0  0  0  0  3  0  0  0  0  0  0
  -32.4290   12.5020  -30.3280 O   0  0  0  0  0  0  0  0  0  0  0  0
  -33.1940   12.0330  -30.6460 H   0  0  0  0  0  0  0  0  0  0  0  0
  -36.0030   15.3700  -32.3350 C   0  0  0  0  0  3  0  0  0  0  0  0
  -35.7950   17.4680  -30.8400 C   0  0  0  0  0  1  0  0  0  0  0  0
  -36.0630   17.7180  -33.2950 C   0  0  0  0  0  1  0  0  0  0  0  0
  -38.0010   16.9690  -31.8970 C   0  0  0  0  0  1  0  0  0  0  0  0
  -36.4730   16.8500  -32.0860 C   0  0  1  0  0  0  0  0  0  0  0  0
  -36.7540   14.7700  -33.4490 N   0  0  0  0  0  0  0  0  0  0  0  0
  -36.2390   14.2290  -34.5630 C   0  0  0  0  0  0  0  0  0  0  0  0
  -35.0290   14.2500  -34.8020 O   0  0  0  0  0  0  0  0  0  0  0  0
  -37.7490   14.6530  -33.3120 H   0  0  0  0  0  0  0  0  0  0  0  0
  -37.2300   13.5920  -35.4990 C   0  0  1  0  0  0  0  0  0  0  0  0
  -38.5030   13.4630  -34.9650 F   0  0  0  0  0  0  0  0  0  0  0  0
  -37.1360   13.8700  -36.9820 C   0  0  0  0  0  2  0  0  0  0  0  0
  -36.7790   12.5010  -36.4460 C   0  0  0  0  0  2  0  0  0  0  0  0
  -38.5500   14.1640  -23.7750 O   0  0  0  0  0  0  0  0  0  0  0  0
  -37.5150   17.7290  -23.5980 C   0  0  0  0  0  3  0  0  0  0  0  0
  -38.4060   18.2140  -24.5670 C   0  0  0  0  0  3  0  0  0  0  0  0
  -37.5380   16.3580  -23.3000 C   0  0  0  0  0  3  0  0  0  0  0  0
  -39.2710   17.3080  -25.2090 C   0  0  0  0  0  0  0  0  0  0  0  0
  -38.4310   15.5160  -23.9980 C   0  0  0  0  0  0  0  0  0  0  0  0
  -39.2740   15.9840  -24.9300 N   0  0  0  0  0  0  0  0  0  0  0  0
  -41.6120   16.9300  -26.0780 C   0  0  0  0  0  1  0  0  0  0  0  0
  -40.3380   17.8080  -26.1740 C   0  0  0  0  0  3  0  0  0  0  0  0
  -40.3430   19.0070  -28.3820 N   0  0  0  0  0  0  0  0  0  0  0  0
  -39.9480   19.3270  -29.7740 C   0  0  0  0  0  2  0  0  0  0  0  0
  -41.1660   19.3570  -30.7490 C   0  0  0  0  0  2  0  0  0  0  0  0
  -42.2940   18.5920  -30.2120 N   0  0  0  0  0  0  0  0  0  0  0  0
  -42.7450   18.9120  -28.8620 C   0  0  0  0  0  2  0  0  0  0  0  0
  -41.6330   19.6190  -28.0570 C   0  0  0  0  0  2  0  0  0  0  0  0
  -39.8070   18.0160  -27.6260 C   0  0  0  0  0  0  0  0  0  0  0  0
  -38.8830   17.3150  -28.0510 O   0  0  0  0  0  0  0  0  0  0  0  0
  -43.2130   18.0080  -31.1090 C   0  0  0  0  0  0  0  0  0  0  0  0
  -44.5180   18.5140  -31.2940 C   0  0  0  0  0  3  0  0  0  0  0  0
  -45.3960   17.8540  -32.1930 C   0  0  0  0  0  0  0  0  0  0  0  0
  -44.9640   16.7450  -32.8600 N   0  0  0  0  0  0  0  0  0  0  0  0
  -43.7380   16.2420  -32.6850 N   0  0  0  0  0  0  0  0  0  0  0  0
  -42.8800   16.8460  -31.8390 C   0  0  0  0  0  0  0  0  0  0  0  0
  -41.6510   16.2340  -31.6690 N   0  0  0  0  0  0  0  0  0  0  0  0
  -41.1750   16.5600  -30.8360 H   0  0  0  0  0  0  0  0  0  0  0  0
  -41.6320   15.2330  -31.7980 H   0  0  0  0  0  0  0  0  0  0  0  0
  -46.8070   18.3000  -32.4570 C   0  0  0  0  0  0  0  0  0  0  0  0
  -47.7340   17.6020  -33.2980 C   0  0  0  0  0  0  0  0  0  0  0  0
  -49.0500   18.0720  -33.4850 C   0  0  0  0  0  3  0  0  0  0  0  0
  -49.4910   19.2430  -32.8510 C   0  0  0  0  0  3  0  0  0  0  0  0
  -48.6060   19.9520  -32.0270 C   0  0  0  0  0  3  0  0  0  0  0  0
  -47.2920   19.4860  -31.8400 C   0  0  0  0  0  3  0  0  0  0  0  0
  -47.4170   16.4530  -33.9670 O   0  0  0  0  0  0  0  0  0  0  0  0
  -46.5050   16.2120  -33.8030 H   0  0  0  0  0  0  0  0  0  0  0  0
  1  2  1  0
  2  3  2  0
  3  9  1  0
  4  6  2  0
  5  4  1  0
  5  1  2  0
  6  3  1  0
  7 12  1  0
  7 10  1  0
  8 10  2  0
  9 11  1  0
  9  7  2  0
 11  8  1  0
 13  5  1  0
 14 15  2  0
 14 16  1  0
 16 13  1  0
 17 16  1  0
 18 22  2  0
 18 21  1  0
 19 23  1  0
 19 14  1  0
 20 21  1  0
 20 24  1  0
 21 19  1  0
 24 25  1  0
 24 23  1  0
 26 25  1  0
 27 31  1  0
 27 18  1  0
 31 29  1  6
 31 30  1  0
 31 28  1  0
 32 35  1  0
 32 27  1  0
 33 32  1  0
 34 33  2  0
 36 37  1  1
 36 33  1  0
 38 39  1  0
 38 36  1  0
 39 36  1  0
 40  1  1  0
 41 43  2  0
 42 41  1  0
 44 46  1  0
 44 42  2  0
 45 40  1  0
 45 43  1  0
 46 45  2  0
 48 47  1  0
 48 44  1  0
 49 54  1  0
 49 55  1  0
 50 49  1  0
 51 52  1  0
 51 50  1  0
 52 53  1  0
 53 54  1  0
 55 48  1  0
 56 55  2  0
 57 52  1  0
 58 57  1  0
 59 58  2  0
 60 61  2  0
 60 59  1  0
 61 62  1  0
 62 63  1  0
 62 57  2  0
 63 64  1  0
 65 63  1  0
 66 59  1  0
 66 71  1  0
 67 66  2  0
 68 67  1  0
 68 69  2  0
 69 70  1  0
 70 71  2  0
 72 73  1  0
 72 67  1  0
M  ISO  4  40 101  45 101  49 100  55 100
M  END
>  <TORSDO>  (106) 
F 16

>  <SCORE>  (106) 
-14.643

>  <name>  (106) 
105

>  <ligand_id>  (106) 
105

>  <original_smiles>  (106) 
[H]Oc1c([H])c([H])c([H])c([H])c1-c1nnc(N([H])[H])c(N2C([H])([H])C([H])([H])N(C(=O)C([H])(c3nc(Oc4c([H])c(-c5sc([H])nc5C([H])([H])[H])c([H])c([H])c4C([H])([H])N([H])C(=O)C4([H])N(C(=O)C([H])(N([H])C(=O)C5(F)C([H])([H])C5([H])[H])C(C([H])([H])[H])(C([H])([H])[H])C([H])([H])[H])C([H])([H])C([H])(O[H])C4([H])[H])c([H])c([H])c3[H])C([H])([H])[H])C([H])([H])C2([H])[H])c1[H]

>  <smiles>  (106) 
[H]Oc1c([H])c([H])c([H])c([H])c1-c1nnc(N([H])[H])c(N2C([H])([H])C([H])([H])N(C(=O)C([H])(c3nc(Oc4c([H])c(-c5sc([H])nc5C([H])([H])[H])c([H])c([H])c4C([H])([H])N([H])C(=O)C4([H])N(C(=O)C([H])(N([H])C(=O)C5(F)C([H])([H])C5([H])[H])C(C([H])([H])[H])(C([H])([H])[H])C([H])([H])[H])C([H])([H])C([H])(O[H])C4([H])[H])c([H])c([H])c3[H])C([H])([H])[H])C([H])([H])C2([H])[H])c1[H]

$$$$
106:0:0
     RDKit          3D

 69 76  0  0  1  0  0  0  0  0999 V2000
  -37.4060   13.7890  -23.8660 C   0  0  0  0  0  0  0  0  0  0  0  0
  -36.7470   13.6600  -22.5860 C   0  0  0  0  0  3  0  0  0  0  0  0
  -35.5000   12.9670  -22.4100 C   0  0  0  0  0  0  0  0  0  0  0  0
  -35.5850   12.4000  -24.7790 C   0  0  0  0  0  3  0  0  0  0  0  0
  -36.8370   13.0500  -24.9320 C   0  0  0  0  0  0  0  0  0  0  0  0
  -34.9140   12.3830  -23.5490 C   0  0  0  0  0  3  0  0  0  0  0  0
  -35.2030   12.3170  -19.9010 C   0  0  0  0  0  0  0  0  0  0  0  0
  -33.0310   12.7150  -19.3810 C   0  0  0  0  0  3  0  0  0  0  0  0
  -34.7820   12.8150  -21.1220 C   0  0  0  0  0  0  0  0  0  0  0  0
  -34.2020   12.2750  -18.9220 N   0  0  0  0  0  0  0  0  0  0  0  0
  -33.0740   13.2280  -21.0570 S   0  0  0  0  0  0  0  0  0  0  0  0
  -36.5570   11.8080  -19.5240 C   0  0  0  0  0  1  0  0  0  0  0  0
  -37.5990   12.8760  -26.2400 C   0  0  0  0  0  2  0  0  0  0  0  0
  -36.1760   13.6800  -28.0920 C   0  0  0  0  0  0  0  0  0  0  0  0
  -36.4240   14.8740  -27.9190 O   0  0  0  0  0  0  0  0  0  0  0  0
  -36.7290   12.6960  -27.3850 N   0  0  0  0  0  0  0  0  0  0  0  0
  -36.4790   11.7450  -27.6200 H   0  0  0  0  0  0  0  0  0  0  0  0
  -36.1220   14.4380  -31.0920 C   0  0  0  0  0  0  0  0  0  0  0  0
  -35.1330   13.2460  -29.1250 C   0  0  0  0  0  3  0  0  0  0  0  0
  -33.6620   14.4800  -30.5830 C   0  0  0  0  0  2  0  0  0  0  0  0
  -35.0590   14.1240  -30.3070 N   0  0  0  0  0  0  0  0  0  0  0  0
  -37.2480   13.9720  -30.8800 O   0  0  0  0  0  0  0  0  0  0  0  0
  -33.7390   13.2930  -28.4810 C   0  0  0  0  0  2  0  0  0  0  0  0
  -32.8110   13.6490  -29.6230 C   0  0  0  0  0  3  0  0  0  0  0  0
  -32.3870   12.4750  -30.2970 O   0  0  0  0  0  0  0  0  0  0  0  0
  -33.1580   12.0120  -30.6120 H   0  0  0  0  0  0  0  0  0  0  0  0
  -35.9370   15.3660  -32.3220 C   0  0  0  0  0  3  0  0  0  0  0  0
  -36.7130   14.7810  -33.4270 N   0  0  0  0  0  0  0  0  0  0  0  0
  -36.2190   14.2160  -34.5390 C   0  0  0  0  0  0  0  0  0  0  0  0
  -35.0100   14.2010  -34.7840 O   0  0  0  0  0  0  0  0  0  0  0  0
  -37.7100   14.6900  -33.2840 H   0  0  0  0  0  0  0  0  0  0  0  0
  -37.2340   13.5980  -35.4630 C   0  0  1  0  0  0  0  0  0  0  0  0
  -38.5060   13.5110  -34.9210 F   0  0  0  0  0  0  0  0  0  0  0  0
  -37.1390   13.8600  -36.9480 C   0  0  0  0  0  2  0  0  0  0  0  0
  -36.8180   12.4860  -36.4010 C   0  0  0  0  0  2  0  0  0  0  0  0
  -35.6620   17.4630  -30.8350 C   0  0  0  0  0  1  0  0  0  0  0  0
  -35.9670   17.7100  -33.2870 C   0  0  0  0  0  1  0  0  0  0  0  0
  -37.8960   17.0060  -31.8540 C   0  0  0  0  0  1  0  0  0  0  0  0
  -36.3750   16.8550  -32.0670 C   0  0  1  0  0  0  0  0  0  0  0  0
  -38.6130   14.5280  -24.0550 O   0  0  0  0  0  0  0  0  0  0  0  0
  -40.3600   18.7700  -27.8310 N   0  0  0  0  0  0  0  0  0  0  0  0
  -39.9180   19.2140  -29.1950 C   0  0  0  0  0  2  0  0  0  0  0  0
  -41.0870   19.4250  -30.2540 C   0  0  0  0  0  2  0  0  0  0  0  0
  -42.2870   18.6510  -29.9150 N   0  0  0  0  0  0  0  0  0  0  0  0
  -42.7700   18.7560  -28.5370 C   0  0  0  0  0  2  0  0  0  0  0  0
  -41.6990   19.3080  -27.5530 C   0  0  0  0  0  2  0  0  0  0  0  0
  -38.0000   16.3920  -25.7860 C   0  0  0  0  0  3  0  0  0  0  0  0
  -38.4430   17.3960  -26.7410 C   0  0  0  0  0  3  0  0  0  0  0  0
  -40.2520   15.9740  -25.3160 C   0  0  0  0  0  3  0  0  0  0  0  0
  -38.9050   15.5890  -25.0180 C   0  0  0  0  0  0  0  0  0  0  0  0
  -39.8210   17.7000  -26.9610 C   0  0  0  0  0  0  0  0  0  0  0  0
  -40.6780   16.9550  -26.1990 N   0  0  0  0  0  0  0  0  0  0  0  0
  -43.1080   18.0420  -30.9050 C   0  0  0  0  0  0  0  0  0  0  0  0
  -44.4410   18.4500  -31.1490 C   0  0  0  0  0  3  0  0  0  0  0  0
  -45.2250   17.7620  -32.1200 C   0  0  0  0  0  0  0  0  0  0  0  0
  -44.6780   16.7140  -32.7960 N   0  0  0  0  0  0  0  0  0  0  0  0
  -43.4300   16.2970  -32.5710 N   0  0  0  0  0  0  0  0  0  0  0  0
  -42.6610   16.9310  -31.6610 C   0  0  0  0  0  0  0  0  0  0  0  0
  -41.4060   16.3890  -31.4490 N   0  0  0  0  0  0  0  0  0  0  0  0
  -41.0140   16.6840  -30.5640 H   0  0  0  0  0  0  0  0  0  0  0  0
  -41.3250   15.3990  -31.6280 H   0  0  0  0  0  0  0  0  0  0  0  0
  -46.6530   18.1080  -32.4540 C   0  0  0  0  0  0  0  0  0  0  0  0
  -47.4900   17.3560  -33.3450 C   0  0  0  0  0  0  0  0  0  0  0  0
  -48.8260   17.7350  -33.5920 C   0  0  0  0  0  3  0  0  0  0  0  0
  -49.3770   18.8640  -32.9730 C   0  0  0  0  0  3  0  0  0  0  0  0
  -48.5840   19.6250  -32.1050 C   0  0  0  0  0  3  0  0  0  0  0  0
  -47.2500   19.2510  -31.8560 C   0  0  0  0  0  3  0  0  0  0  0  0
  -47.0640   16.2390  -34.0060 O   0  0  0  0  0  0  0  0  0  0  0  0
  -46.1460   16.0600  -33.8030 H   0  0  0  0  0  0  0  0  0  0  0  0
  1  2  1  0
  2  3  2  0
  3  9  1  0
  4  6  2  0
  5  4  1  0
  5  1  2  0
  6  3  1  0
  7 12  1  0
  7 10  1  0
  8 10  2  0
  9 11  1  0
  9  7  2  0
 11  8  1  0
 13  5  1  0
 14 15  2  0
 14 16  1  0
 16 13  1  0
 17 16  1  0
 18 22  2  0
 18 21  1  0
 19 23  1  0
 19 14  1  0
 20 21  1  0
 20 24  1  0
 21 19  1  0
 24 25  1  0
 24 23  1  0
 26 25  1  0
 27 39  1  0
 27 18  1  0
 28 31  1  0
 28 27  1  0
 29 28  1  0
 30 29  2  0
 32 33  1  1
 32 29  1  0
 34 35  1  0
 34 32  1  0
 35 32  1  0
 39 37  1  6
 39 38  1  0
 39 36  1  0
 40  1  1  0
 41 46  1  0
 41 51  1  0
 42 41  1  0
 43 44  1  0
 43 42  1  0
 44 45  1  0
 45 46  1  0
 47 50  1  0
 48 47  2  0
 49 50  2  0
 50 40  1  0
 51 48  1  0
 51 52  2  0
 52 49  1  0
 53 44  1  0
 54 53  1  0
 55 54  2  0
 56 57  2  0
 56 55  1  0
 57 58  1  0
 58 59  1  0
 58 53  2  0
 59 60  1  0
 61 59  1  0
 62 55  1  0
 62 67  1  0
 63 62  2  0
 64 63  1  0
 64 65  2  0
 65 66  1  0
 66 67  2  0
 68 69  1  0
 68 63  1  0
M  ISO  4  40 101  41 100  50 101  51 100
M  END
>  <TORSDO>  (107) 
F 14

>  <SCORE>  (107) 
-14.908

>  <name>  (107) 
106

>  <ligand_id>  (107) 
106

>  <original_smiles>  (107) 
[H]Oc1c([H])c([H])c([H])c([H])c1-c1nnc(N([H])[H])c(N2C([H])([H])C([H])([H])N(c3nc([H])c(Oc4c([H])c(-c5sc([H])nc5C([H])([H])[H])c([H])c([H])c4C([H])([H])N([H])C(=O)C4([H])N(C(=O)C([H])(N([H])C(=O)C5(F)C([H])([H])C5([H])[H])C(C([H])([H])[H])(C([H])([H])[H])C([H])([H])[H])C([H])([H])C([H])(O[H])C4([H])[H])c([H])c3[H])C([H])([H])C2([H])[H])c1[H]

>  <smiles>  (107) 
[H]Oc1c([H])c([H])c([H])c([H])c1-c1nnc(N([H])[H])c(N2C([H])([H])C([H])([H])N(c3nc([H])c(Oc4c([H])c(-c5sc([H])nc5C([H])([H])[H])c([H])c([H])c4C([H])([H])N([H])C(=O)C4([H])N(C(=O)C([H])(N([H])C(=O)C5(F)C([H])([H])C5([H])[H])C(C([H])([H])[H])(C([H])([H])[H])C([H])([H])[H])C([H])([H])C([H])(O[H])C4([H])[H])c([H])c3[H])C([H])([H])C2([H])[H])c1[H]

$$$$
107:0:0
     RDKit          3D

 77 85  0  0  1  0  0  0  0  0999 V2000
  -37.3940   13.4930  -23.7090 C   0  0  0  0  0  0  0  0  0  0  0  0
  -36.7010   13.4720  -22.4790 C   0  0  0  0  0  3  0  0  0  0  0  0
  -35.4160   12.8950  -22.3670 C   0  0  0  0  0  0  0  0  0  0  0  0
  -35.4870   12.3800  -24.7500 C   0  0  0  0  0  3  0  0  0  0  0  0
  -36.7890   12.9150  -24.8620 C   0  0  0  0  0  0  0  0  0  0  0  0
  -34.8090   12.3740  -23.5250 C   0  0  0  0  0  3  0  0  0  0  0  0
  -35.1930   12.3380  -19.8590 C   0  0  0  0  0  0  0  0  0  0  0  0
  -33.0340   12.7590  -19.3100 C   0  0  0  0  0  3  0  0  0  0  0  0
  -34.7280   12.7910  -21.0800 C   0  0  0  0  0  0  0  0  0  0  0  0
  -34.2140   12.3250  -18.8640 N   0  0  0  0  0  0  0  0  0  0  0  0
  -33.0380   13.2340  -20.9950 S   0  0  0  0  0  0  0  0  0  0  0  0
  -36.5630   11.8450  -19.5100 C   0  0  0  0  0  1  0  0  0  0  0  0
  -37.5190   12.7350  -26.1950 C   0  0  0  0  0  2  0  0  0  0  0  0
  -36.1530   13.6420  -28.0720 C   0  0  0  0  0  0  0  0  0  0  0  0
  -36.4340   14.8270  -27.8870 O   0  0  0  0  0  0  0  0  0  0  0  0
  -36.6550   12.6320  -27.3570 N   0  0  0  0  0  0  0  0  0  0  0  0
  -36.3670   11.6980  -27.6160 H   0  0  0  0  0  0  0  0  0  0  0  0
  -36.1040   14.4170  -31.0890 C   0  0  0  0  0  0  0  0  0  0  0  0
  -35.1100   13.2340  -29.1190 C   0  0  0  0  0  3  0  0  0  0  0  0
  -33.6460   14.4700  -30.5810 C   0  0  0  0  0  2  0  0  0  0  0  0
  -35.0420   14.1110  -30.3010 N   0  0  0  0  0  0  0  0  0  0  0  0
  -37.2280   13.9460  -30.8760 O   0  0  0  0  0  0  0  0  0  0  0  0
  -33.7150   13.2880  -28.4770 C   0  0  0  0  0  2  0  0  0  0  0  0
  -32.7910   13.6470  -29.6190 C   0  0  0  0  0  3  0  0  0  0  0  0
  -32.3600   12.4730  -30.2900 O   0  0  0  0  0  0  0  0  0  0  0  0
  -33.1280   12.0010  -30.5950 H   0  0  0  0  0  0  0  0  0  0  0  0
  -35.9220   15.3400  -32.3250 C   0  0  0  0  0  3  0  0  0  0  0  0
  -35.6970   17.4480  -30.8410 C   0  0  0  0  0  1  0  0  0  0  0  0
  -35.9610   17.6810  -33.3010 C   0  0  0  0  0  1  0  0  0  0  0  0
  -37.9070   16.9600  -31.8940 C   0  0  0  0  0  1  0  0  0  0  0  0
  -36.3790   16.8260  -32.0840 C   0  0  1  0  0  0  0  0  0  0  0  0
  -36.6780   14.7370  -33.4350 N   0  0  0  0  0  0  0  0  0  0  0  0
  -36.1690   14.1910  -34.5500 C   0  0  0  0  0  0  0  0  0  0  0  0
  -34.9600   14.2070  -34.7920 O   0  0  0  0  0  0  0  0  0  0  0  0
  -37.6720   14.6150  -33.2880 H   0  0  0  0  0  0  0  0  0  0  0  0
  -37.1650   13.5530  -35.4800 C   0  0  1  0  0  0  0  0  0  0  0  0
  -38.4350   13.4250  -34.9390 F   0  0  0  0  0  0  0  0  0  0  0  0
  -37.0750   13.8260  -36.9630 C   0  0  0  0  0  2  0  0  0  0  0  0
  -36.7190   12.4590  -36.4270 C   0  0  0  0  0  2  0  0  0  0  0  0
  -38.6550   14.0510  -23.7280 O   0  0  0  0  0  0  0  0  0  0  0  0
  -39.6550   15.1490  -25.5840 C   0  0  0  0  0  2  0  0  0  0  0  0
  -39.2430   15.9680  -26.6320 C   0  0  0  0  0  3  0  0  0  0  0  0
  -38.8160   15.1880  -24.4720 C   0  0  0  0  0  0  0  0  0  0  0  0
  -37.8250   17.0680  -25.2310 C   0  0  0  0  0  3  0  0  0  0  0  0
  -39.3570   19.8530  -24.7820 C   0  0  0  0  0  2  0  0  0  0  0  0
  -38.2150   19.1260  -24.0210 C   0  0  0  0  0  2  0  0  0  0  0  0
  -36.6740   19.1850  -25.9270 C   0  0  0  0  0  2  0  0  0  0  0  0
  -38.9940   20.2790  -26.2350 C   0  0  0  0  0  3  0  0  0  0  0  0
  -37.4600   20.4680  -26.3530 C   0  0  0  0  0  3  0  0  0  0  0  0
  -36.9740   21.7370  -25.6220 C   0  0  0  0  0  1  0  0  0  0  0  0
  -38.2760   16.8770  -26.4540 N   0  0  0  0  0  0  0  0  0  0  0  0
  -37.9880   16.2230  -24.2270 N   0  0  0  0  0  0  0  0  0  0  0  0
  -37.3670   18.3510  -24.9270 N   0  0  0  0  0  0  0  0  0  0  0  0
  -39.4780   19.2490  -27.2890 C   0  0  0  0  0  2  0  0  0  0  0  0
  -40.3920   19.7480  -28.2810 N   0  0  0  0  0  0  0  0  0  0  0  0
  -40.0640   19.4210  -29.6720 C   0  0  0  0  0  2  0  0  0  0  0  0
  -41.2970   19.5490  -30.5860 C   0  0  0  0  0  2  0  0  0  0  0  0
  -42.3540   18.6750  -30.0880 N   0  0  0  0  0  0  0  0  0  0  0  0
  -42.6210   18.6230  -28.6540 C   0  0  0  0  0  2  0  0  0  0  0  0
  -41.8030   19.6830  -27.8840 C   0  0  0  0  0  2  0  0  0  0  0  0
  -43.2040   18.0160  -30.9920 C   0  0  0  0  0  0  0  0  0  0  0  0
  -44.5200   18.4640  -31.2110 C   0  0  0  0  0  3  0  0  0  0  0  0
  -45.3320   17.7780  -32.1500 C   0  0  0  0  0  0  0  0  0  0  0  0
  -44.8260   16.6930  -32.8060 N   0  0  0  0  0  0  0  0  0  0  0  0
  -43.5880   16.2370  -32.5880 N   0  0  0  0  0  0  0  0  0  0  0  0
  -42.7880   16.8750  -31.7100 C   0  0  0  0  0  0  0  0  0  0  0  0
  -41.5340   16.3280  -31.5030 N   0  0  0  0  0  0  0  0  0  0  0  0
  -41.1080   16.6710  -30.6530 H   0  0  0  0  0  0  0  0  0  0  0  0
  -41.4570   15.3300  -31.6410 H   0  0  0  0  0  0  0  0  0  0  0  0
  -46.7470   18.1700  -32.4640 C   0  0  0  0  0  0  0  0  0  0  0  0
  -47.6200   17.4280  -33.3240 C   0  0  0  0  0  0  0  0  0  0  0  0
  -48.9450   17.8460  -33.5580 C   0  0  0  0  0  3  0  0  0  0  0  0
  -49.4490   19.0060  -32.9520 C   0  0  0  0  0  3  0  0  0  0  0  0
  -48.6170   19.7590  -32.1110 C   0  0  0  0  0  3  0  0  0  0  0  0
  -47.2920   19.3450  -31.8780 C   0  0  0  0  0  3  0  0  0  0  0  0
  -47.2360   16.2860  -33.9680 O   0  0  0  0  0  0  0  0  0  0  0  0
  -46.3200   16.0890  -33.7690 H   0  0  0  0  0  0  0  0  0  0  0  0
  1  2  1  0
  2  3  2  0
  3  9  1  0
  4  6  2  0
  5  4  1  0
  5  1  2  0
  6  3  1  0
  7 12  1  0
  7 10  1  0
  8 10  2  0
  9 11  1  0
  9  7  2  0
 11  8  1  0
 13  5  1  0
 14 15  2  0
 14 16  1  0
 16 13  1  0
 17 16  1  0
 18 22  2  0
 18 21  1  0
 19 23  1  0
 19 14  1  0
 20 21  1  0
 20 24  1  0
 21 19  1  0
 24 25  1  0
 24 23  1  0
 26 25  1  0
 27 31  1  0
 27 18  1  0
 31 29  1  6
 31 30  1  0
 31 28  1  0
 32 35  1  0
 32 27  1  0
 33 32  1  0
 34 33  2  0
 36 37  1  1
 36 33  1  0
 38 39  1  0
 38 36  1  0
 39 36  1  0
 40  1  1  0
 41 43  1  0
 42 51  2  0
 42 41  1  0
 43 52  2  0
 43 40  1  0
 44 51  1  0
 44 53  1  0
 44 52  1  0
 45 46  1  0
 48 54  1  0
 48 45  1  0
 49 48  1  0
 49 47  1  0
 49 50  1  0
 53 47  1  0
 53 46  1  0
 55 60  1  0
 55 54  1  0
 56 55  1  0
 57 58  1  0
 57 56  1  0
 58 59  1  0
 59 60  1  0
 61 58  1  0
 62 61  1  0
 63 62  2  0
 64 65  2  0
 64 63  1  0
 65 66  1  0
 66 67  1  0
 66 61  2  0
 67 68  1  0
 69 67  1  0
 70 63  1  0
 70 75  1  0
 71 70  2  0
 72 71  1  0
 72 73  2  0
 73 74  1  0
 74 75  2  0
 76 77  1  0
 76 71  1  0
M  ISO  4  40 101  43 101  54 100  55 100
M  END
>  <TORSDO>  (108) 
F 16

>  <SCORE>  (108) 
-14.665

>  <name>  (108) 
107

>  <ligand_id>  (108) 
107

>  <original_smiles>  (108) 
[H]Oc1c([H])c([H])c([H])c([H])c1-c1nnc(N([H])[H])c(N2C([H])([H])C([H])([H])N(C([H])([H])C3([H])C([H])([H])C([H])([H])N(c4nc([H])c([H])c(Oc5c([H])c(-c6sc([H])nc6C([H])([H])[H])c([H])c([H])c5C([H])([H])N([H])C(=O)C5([H])N(C(=O)C([H])(N([H])C(=O)C6(F)C([H])([H])C6([H])[H])C(C([H])([H])[H])(C([H])([H])[H])C([H])([H])[H])C([H])([H])C([H])(O[H])C5([H])[H])n4)C([H])([H])C3([H])C([H])([H])[H])C([H])([H])C2([H])[H])c1[H]

>  <smiles>  (108) 
[H]Oc1c([H])c([H])c([H])c([H])c1-c1nnc(N([H])[H])c(N2C([H])([H])C([H])([H])N(C([H])([H])C3([H])C([H])([H])C([H])([H])N(c4nc([H])c([H])c(Oc5c([H])c(-c6sc([H])nc6C([H])([H])[H])c([H])c([H])c5C([H])([H])N([H])C(=O)C5([H])N(C(=O)C([H])(N([H])C(=O)C6(F)C([H])([H])C6([H])[H])C(C([H])([H])[H])(C([H])([H])[H])C([H])([H])[H])C([H])([H])C([H])(O[H])C5([H])[H])n4)C([H])([H])C3([H])C([H])([H])[H])C([H])([H])C2([H])[H])c1[H]

$$$$
108:0:0
     RDKit          3D

 76 84  0  0  1  0  0  0  0  0999 V2000
  -37.4720   13.5170  -23.7660 C   0  0  0  0  0  0  0  0  0  0  0  0
  -36.8130   13.3520  -22.5280 C   0  0  0  0  0  3  0  0  0  0  0  0
  -35.5390   12.7650  -22.4410 C   0  0  0  0  0  0  0  0  0  0  0  0
  -35.6080   12.3800  -24.8530 C   0  0  0  0  0  3  0  0  0  0  0  0
  -36.8810   12.9890  -24.9390 C   0  0  0  0  0  0  0  0  0  0  0  0
  -34.9370   12.2910  -23.6220 C   0  0  0  0  0  3  0  0  0  0  0  0
  -35.3820   12.1630  -19.9430 C   0  0  0  0  0  0  0  0  0  0  0  0
  -33.2320   12.5380  -19.3380 C   0  0  0  0  0  3  0  0  0  0  0  0
  -34.8790   12.6170  -21.1470 C   0  0  0  0  0  0  0  0  0  0  0  0
  -34.4290   12.1180  -18.9240 N   0  0  0  0  0  0  0  0  0  0  0  0
  -33.1880   13.0430  -21.0140 S   0  0  0  0  0  0  0  0  0  0  0  0
  -36.7710   11.7010  -19.6250 C   0  0  0  0  0  1  0  0  0  0  0  0
  -37.6310   13.0580  -26.2700 C   0  0  0  0  0  2  0  0  0  0  0  0
  -36.2090   13.7680  -28.1700 C   0  0  0  0  0  0  0  0  0  0  0  0
  -36.4450   14.9680  -28.0170 O   0  0  0  0  0  0  0  0  0  0  0  0
  -36.7890   12.8130  -27.4370 N   0  0  0  0  0  0  0  0  0  0  0  0
  -36.5660   11.8500  -27.6450 H   0  0  0  0  0  0  0  0  0  0  0  0
  -36.0970   14.4730  -31.1950 C   0  0  0  0  0  0  0  0  0  0  0  0
  -35.1590   13.2990  -29.1920 C   0  0  0  0  0  3  0  0  0  0  0  0
  -33.6470   14.4950  -30.6510 C   0  0  0  0  0  2  0  0  0  0  0  0
  -35.0520   14.1580  -30.3860 N   0  0  0  0  0  0  0  0  0  0  0  0
  -37.2300   14.0180  -30.9980 O   0  0  0  0  0  0  0  0  0  0  0  0
  -33.7660   13.3250  -28.5400 C   0  0  0  0  0  2  0  0  0  0  0  0
  -32.8180   13.6690  -29.6710 C   0  0  0  0  0  3  0  0  0  0  0  0
  -32.3870   12.4890  -30.3300 O   0  0  0  0  0  0  0  0  0  0  0  0
  -33.1540   12.0270  -30.6540 H   0  0  0  0  0  0  0  0  0  0  0  0
  -35.8840   15.3890  -32.4310 C   0  0  0  0  0  3  0  0  0  0  0  0
  -36.6390   14.7950  -33.5470 N   0  0  0  0  0  0  0  0  0  0  0  0
  -36.1260   14.2500  -34.6590 C   0  0  0  0  0  0  0  0  0  0  0  0
  -34.9160   14.2600  -34.8970 O   0  0  0  0  0  0  0  0  0  0  0  0
  -37.6350   14.6860  -33.4120 H   0  0  0  0  0  0  0  0  0  0  0  0
  -37.1220   13.6200  -35.5970 C   0  0  1  0  0  0  0  0  0  0  0  0
  -38.3930   13.4910  -35.0600 F   0  0  0  0  0  0  0  0  0  0  0  0
  -37.0310   13.9060  -37.0780 C   0  0  0  0  0  2  0  0  0  0  0  0
  -36.6740   12.5340  -36.5500 C   0  0  0  0  0  2  0  0  0  0  0  0
  -35.6610   17.4870  -30.9350 C   0  0  0  0  0  1  0  0  0  0  0  0
  -35.8540   17.7320  -33.3980 C   0  0  0  0  0  1  0  0  0  0  0  0
  -37.8510   17.0410  -32.0540 C   0  0  0  0  0  1  0  0  0  0  0  0
  -36.3220   16.8810  -32.1980 C   0  0  1  0  0  0  0  0  0  0  0  0
  -38.6780   14.1690  -23.8830 O   0  0  0  0  0  0  0  0  0  0  0  0
  -37.9110   19.6020  -27.8100 C   0  0  0  0  0  3  0  0  0  0  0  0
  -39.2380   19.1620  -27.5890 C   0  0  0  0  0  0  0  0  0  0  0  0
  -38.5590   18.2850  -25.6030 C   0  0  0  0  0  0  0  0  0  0  0  0
  -40.3720   15.7000  -23.4670 C   0  0  0  0  0  2  0  0  0  0  0  0
  -39.9850   16.5110  -24.7160 C   0  0  0  0  0  2  0  0  0  0  0  0
  -37.7360   16.9830  -23.7240 C   0  0  0  0  0  2  0  0  0  0  0  0
  -38.1550   16.2150  -22.4700 C   0  0  0  0  0  3  0  0  0  0  0  0
  -39.1310   15.0600  -22.8470 C   0  0  0  0  0  3  0  0  0  0  0  0
  -38.6930   17.1490  -21.3700 C   0  0  0  0  0  1  0  0  0  0  0  0
  -36.9600   19.3860  -26.8710 N   0  0  0  0  0  0  0  0  0  0  0  0
  -39.5480   18.5110  -26.4600 N   0  0  0  0  0  0  0  0  0  0  0  0
  -37.2910   18.7160  -25.7560 N   0  0  0  0  0  0  0  0  0  0  0  0
  -38.8740   17.4660  -24.5150 N   0  0  0  0  0  0  0  0  0  0  0  0
  -40.2910   19.3120  -28.5020 N   0  0  0  0  0  0  0  0  0  0  0  0
  -40.0000   19.6190  -29.9000 C   0  0  0  0  0  2  0  0  0  0  0  0
  -41.2590   19.5270  -30.8020 C   0  0  0  0  0  2  0  0  0  0  0  0
  -42.2820   18.6490  -30.2340 N   0  0  0  0  0  0  0  0  0  0  0  0
  -42.7120   18.8840  -28.8530 C   0  0  0  0  0  2  0  0  0  0  0  0
  -41.6390   19.6120  -28.0140 C   0  0  0  0  0  2  0  0  0  0  0  0
  -43.1760   18.0230  -31.1260 C   0  0  0  0  0  0  0  0  0  0  0  0
  -44.4970   18.4740  -31.3270 C   0  0  0  0  0  3  0  0  0  0  0  0
  -45.3350   17.7740  -32.2360 C   0  0  0  0  0  0  0  0  0  0  0  0
  -44.8480   16.6840  -32.8950 N   0  0  0  0  0  0  0  0  0  0  0  0
  -43.6030   16.2360  -32.7080 N   0  0  0  0  0  0  0  0  0  0  0  0
  -42.7830   16.8780  -31.8540 C   0  0  0  0  0  0  0  0  0  0  0  0
  -41.5220   16.3330  -31.6800 N   0  0  0  0  0  0  0  0  0  0  0  0
  -41.0730   16.6810  -30.8420 H   0  0  0  0  0  0  0  0  0  0  0  0
  -41.4420   15.3360  -31.8210 H   0  0  0  0  0  0  0  0  0  0  0  0
  -46.7620   18.1550  -32.5210 C   0  0  0  0  0  0  0  0  0  0  0  0
  -47.6470   17.4120  -33.3700 C   0  0  0  0  0  0  0  0  0  0  0  0
  -48.9810   17.8210  -33.5750 C   0  0  0  0  0  3  0  0  0  0  0  0
  -49.4810   18.9730  -32.9510 C   0  0  0  0  0  3  0  0  0  0  0  0
  -48.6380   19.7270  -32.1240 C   0  0  0  0  0  3  0  0  0  0  0  0
  -47.3070   19.3220  -31.9190 C   0  0  0  0  0  3  0  0  0  0  0  0
  -47.2730   16.2740  -34.0270 O   0  0  0  0  0  0  0  0  0  0  0  0
  -46.3520   16.0770  -33.8510 H   0  0  0  0  0  0  0  0  0  0  0  0
  1  2  1  0
  2  3  2  0
  3  9  1  0
  4  6  2  0
  5  4  1  0
  5  1  2  0
  6  3  1  0
  7 12  1  0
  7 10  1  0
  8 10  2  0
  9 11  1  0
  9  7  2  0
 11  8  1  0
 13  5  1  0
 14 15  2  0
 14 16  1  0
 16 13  1  0
 17 16  1  0
 18 22  2  0
 18 21  1  0
 19 23  1  0
 19 14  1  0
 20 21  1  0
 20 24  1  0
 21 19  1  0
 24 25  1  0
 24 23  1  0
 26 25  1  0
 27 39  1  0
 27 18  1  0
 28 31  1  0
 28 27  1  0
 29 28  1  0
 30 29  2  0
 32 33  1  1
 32 29  1  0
 34 35  1  0
 34 32  1  0
 35 32  1  0
 39 37  1  6
 39 38  1  0
 39 36  1  0
 40  1  1  0
 41 42  2  0
 41 50  1  0
 42 51  1  0
 43 53  1  0
 44 48  1  0
 45 53  1  0
 45 44  1  0
 46 47  1  0
 47 49  1  0
 48 40  1  0
 48 47  1  0
 50 52  2  0
 51 43  2  0
 52 43  1  0
 53 46  1  0
 54 59  1  0
 54 42  1  0
 55 54  1  0
 56 57  1  0
 56 55  1  0
 57 58  1  0
 58 59  1  0
 60 57  1  0
 61 60  1  0
 62 61  2  0
 63 64  2  0
 63 62  1  0
 64 65  1  0
 65 66  1  0
 65 60  2  0
 66 67  1  0
 68 66  1  0
 69 62  1  0
 69 74  1  0
 70 69  2  0
 71 70  1  0
 71 72  2  0
 72 73  1  0
 73 74  2  0
 75 76  1  0
 75 70  1  0
M  ISO  4  40 101  42 100  48 101  54 100
M  END
>  <TORSDO>  (109) 
F 15

>  <SCORE>  (109) 
-14.762

>  <name>  (109) 
108

>  <ligand_id>  (109) 
108

>  <original_smiles>  (109) 
[H]Oc1c([H])c([H])c([H])c([H])c1-c1nnc(N([H])[H])c(N2C([H])([H])C([H])([H])N(c3nc(N4C([H])([H])C([H])([H])C([H])(Oc5c([H])c(-c6sc([H])nc6C([H])([H])[H])c([H])c([H])c5C([H])([H])N([H])C(=O)C5([H])N(C(=O)C([H])(N([H])C(=O)C6(F)C([H])([H])C6([H])[H])C(C([H])([H])[H])(C([H])([H])[H])C([H])([H])[H])C([H])([H])C([H])(O[H])C5([H])[H])C([H])(C([H])([H])[H])C4([H])[H])nnc3[H])C([H])([H])C2([H])[H])c1[H]

>  <smiles>  (109) 
[H]Oc1c([H])c([H])c([H])c([H])c1-c1nnc(N([H])[H])c(N2C([H])([H])C([H])([H])N(c3nc(N4C([H])([H])C([H])([H])C([H])(Oc5c([H])c(-c6sc([H])nc6C([H])([H])[H])c([H])c([H])c5C([H])([H])N([H])C(=O)C5([H])N(C(=O)C([H])(N([H])C(=O)C6(F)C([H])([H])C6([H])[H])C(C([H])([H])[H])(C([H])([H])[H])C([H])([H])[H])C([H])([H])C([H])(O[H])C5([H])[H])C([H])(C([H])([H])[H])C4([H])[H])nnc3[H])C([H])([H])C2([H])[H])c1[H]

$$$$
109:0:0
     RDKit          3D

 74 81  0  0  1  0  0  0  0  0999 V2000
  -37.4070   13.5680  -23.7530 C   0  0  0  0  0  0  0  0  0  0  0  0
  -36.7290   13.5060  -22.5100 C   0  0  0  0  0  3  0  0  0  0  0  0
  -35.4530   12.8990  -22.4030 C   0  0  0  0  0  0  0  0  0  0  0  0
  -35.5400   12.4000  -24.7970 C   0  0  0  0  0  3  0  0  0  0  0  0
  -36.8250   12.9770  -24.8940 C   0  0  0  0  0  0  0  0  0  0  0  0
  -34.8600   12.3730  -23.5680 C   0  0  0  0  0  3  0  0  0  0  0  0
  -35.2050   12.3080  -19.9010 C   0  0  0  0  0  0  0  0  0  0  0  0
  -33.0460   12.7350  -19.3590 C   0  0  0  0  0  3  0  0  0  0  0  0
  -34.7540   12.7780  -21.1200 C   0  0  0  0  0  0  0  0  0  0  0  0
  -34.2200   12.2910  -18.9090 N   0  0  0  0  0  0  0  0  0  0  0  0
  -33.0630   13.2270  -21.0400 S   0  0  0  0  0  0  0  0  0  0  0  0
  -36.5700   11.8080  -19.5450 C   0  0  0  0  0  1  0  0  0  0  0  0
  -37.6030   12.9550  -26.2060 C   0  0  0  0  0  2  0  0  0  0  0  0
  -36.2240   13.7150  -28.1090 C   0  0  0  0  0  0  0  0  0  0  0  0
  -36.4810   14.9100  -27.9440 O   0  0  0  0  0  0  0  0  0  0  0  0
  -36.7670   12.7410  -27.3760 N   0  0  0  0  0  0  0  0  0  0  0  0
  -36.5220   11.7840  -27.5960 H   0  0  0  0  0  0  0  0  0  0  0  0
  -36.1650   14.4520  -31.1240 C   0  0  0  0  0  0  0  0  0  0  0  0
  -35.1850   13.2690  -29.1490 C   0  0  0  0  0  3  0  0  0  0  0  0
  -33.7070   14.4890  -30.6160 C   0  0  0  0  0  2  0  0  0  0  0  0
  -35.1040   14.1400  -30.3360 N   0  0  0  0  0  0  0  0  0  0  0  0
  -37.2910   13.9850  -30.9140 O   0  0  0  0  0  0  0  0  0  0  0  0
  -33.7850   13.3050  -28.5120 C   0  0  0  0  0  2  0  0  0  0  0  0
  -32.8570   13.6610  -29.6530 C   0  0  0  0  0  3  0  0  0  0  0  0
  -32.4300   12.4880  -30.3280 O   0  0  0  0  0  0  0  0  0  0  0  0
  -33.1990   12.0250  -30.6450 H   0  0  0  0  0  0  0  0  0  0  0  0
  -35.9770   15.3770  -32.3560 C   0  0  0  0  0  3  0  0  0  0  0  0
  -35.7550   17.4770  -30.8630 C   0  0  0  0  0  1  0  0  0  0  0  0
  -36.0100   17.7220  -33.3210 C   0  0  0  0  0  1  0  0  0  0  0  0
  -37.9620   16.9960  -31.9310 C   0  0  0  0  0  1  0  0  0  0  0  0
  -36.4350   16.8620  -32.1110 C   0  0  1  0  0  0  0  0  0  0  0  0
  -36.7330   14.7790  -33.4690 N   0  0  0  0  0  0  0  0  0  0  0  0
  -36.2220   14.2350  -34.5820 C   0  0  0  0  0  0  0  0  0  0  0  0
  -35.0110   14.2520  -34.8240 O   0  0  0  0  0  0  0  0  0  0  0  0
  -37.7290   14.6660  -33.3300 H   0  0  0  0  0  0  0  0  0  0  0  0
  -37.2180   13.5990  -35.5160 C   0  0  1  0  0  0  0  0  0  0  0  0
  -38.4870   13.4630  -34.9730 F   0  0  0  0  0  0  0  0  0  0  0  0
  -37.1350   13.8870  -36.9970 C   0  0  0  0  0  2  0  0  0  0  0  0
  -36.7700   12.5160  -36.4720 C   0  0  0  0  0  2  0  0  0  0  0  0
  -38.6400   14.1670  -23.8780 O   0  0  0  0  0  0  0  0  0  0  0  0
  -38.6540   15.6030  -23.7840 C   0  0  0  0  0  2  0  0  0  0  0  0
  -38.9260   16.3830  -25.1040 C   0  0  0  0  0  0  0  0  0  0  0  0
  -38.1870   17.5590  -25.4300 C   0  0  0  0  0  0  0  0  0  0  0  0
  -39.9960   16.0120  -25.9650 C   0  0  0  0  0  0  0  0  0  0  0  0
  -39.7010   18.0640  -27.3320 C   0  0  0  0  0  0  0  0  0  0  0  0
  -38.5980   18.4040  -26.5070 C   0  0  0  0  0  0  0  0  0  0  0  0
  -40.3090   16.7930  -27.1100 C   0  0  0  0  0  0  0  0  0  0  0  0
  -36.9830   17.9510  -24.5780 C   0  0  0  0  0  1  0  0  0  0  0  0
  -40.8670   14.7920  -25.6530 C   0  0  0  0  0  1  0  0  0  0  0  0
  -37.7960   19.9190  -26.7890 Cl  0  0  0  0  0  0  0  0  0  0  0  0
  -41.4460   16.1410  -28.2410 Cl  0  0  0  0  0  0  0  0  0  0  0  0
  -40.2740   19.0530  -28.1920 N   0  0  0  0  0  0  0  0  0  0  0  0
  -39.8680   19.3290  -29.5810 C   0  0  0  0  0  2  0  0  0  0  0  0
  -41.0800   19.4370  -30.5650 C   0  0  0  0  0  2  0  0  0  0  0  0
  -42.2390   18.6910  -30.0690 N   0  0  0  0  0  0  0  0  0  0  0  0
  -42.7200   19.0320  -28.7300 C   0  0  0  0  0  2  0  0  0  0  0  0
  -41.5910   19.5500  -27.8010 C   0  0  0  0  0  2  0  0  0  0  0  0
  -43.1160   18.0620  -30.9820 C   0  0  0  0  0  0  0  0  0  0  0  0
  -44.4230   18.5390  -31.2160 C   0  0  0  0  0  3  0  0  0  0  0  0
  -45.2630   17.8490  -32.1310 C   0  0  0  0  0  0  0  0  0  0  0  0
  -44.7950   16.7350  -32.7610 N   0  0  0  0  0  0  0  0  0  0  0  0
  -43.5690   16.2550  -32.5390 N   0  0  0  0  0  0  0  0  0  0  0  0
  -42.7450   16.8890  -31.6800 C   0  0  0  0  0  0  0  0  0  0  0  0
  -41.5120   16.2980  -31.4710 N   0  0  0  0  0  0  0  0  0  0  0  0
  -41.1040   16.6290  -30.6040 H   0  0  0  0  0  0  0  0  0  0  0  0
  -41.4970   15.2950  -31.5740 H   0  0  0  0  0  0  0  0  0  0  0  0
  -46.6700   18.2720  -32.4510 C   0  0  0  0  0  0  0  0  0  0  0  0
  -47.5590   17.5490  -33.3130 C   0  0  0  0  0  0  0  0  0  0  0  0
  -48.8740   17.9980  -33.5510 C   0  0  0  0  0  3  0  0  0  0  0  0
  -49.3520   19.1710  -32.9510 C   0  0  0  0  0  3  0  0  0  0  0  0
  -48.5040   19.9060  -32.1100 C   0  0  0  0  0  3  0  0  0  0  0  0
  -47.1910   19.4610  -31.8710 C   0  0  0  0  0  3  0  0  0  0  0  0
  -47.2070   16.3940  -33.9510 O   0  0  0  0  0  0  0  0  0  0  0  0
  -46.2970   16.1660  -33.7550 H   0  0  0  0  0  0  0  0  0  0  0  0
  1  2  1  0
  2  3  2  0
  3  9  1  0
  4  6  2  0
  5  4  1  0
  5  1  2  0
  6  3  1  0
  7 12  1  0
  7 10  1  0
  8 10  2  0
  9 11  1  0
  9  7  2  0
 11  8  1  0
 13  5  1  0
 14 15  2  0
 14 16  1  0
 16 13  1  0
 17 16  1  0
 18 22  2  0
 18 21  1  0
 19 23  1  0
 19 14  1  0
 20 21  1  0
 20 24  1  0
 21 19  1  0
 24 25  1  0
 24 23  1  0
 26 25  1  0
 27 31  1  0
 27 18  1  0
 31 29  1  6
 31 30  1  0
 31 28  1  0
 32 35  1  0
 32 27  1  0
 33 32  1  0
 34 33  2  0
 36 37  1  1
 36 33  1  0
 38 39  1  0
 38 36  1  0
 39 36  1  0
 40 41  1  0
 40  1  1  0
 42 41  1  0
 43 42  1  0
 43 48  1  0
 44 49  1  0
 44 42  2  0
 45 47  2  0
 45 46  1  0
 46 43  2  0
 47 44  1  0
 50 46  1  0
 51 47  1  0
 52 57  1  0
 52 45  1  0
 53 52  1  0
 54 55  1  0
 54 53  1  0
 55 56  1  0
 56 57  1  0
 58 55  1  0
 59 58  1  0
 60 59  2  0
 61 62  2  0
 61 60  1  0
 62 63  1  0
 63 64  1  0
 63 58  2  0
 64 65  1  0
 66 64  1  0
 67 60  1  0
 67 72  1  0
 68 67  2  0
 69 68  1  0
 69 70  2  0
 70 71  1  0
 71 72  2  0
 73 74  1  0
 73 68  1  0
M  ISO  4  40 101  41 101  45 100  52 100
M  END
>  <TORSDO>  (110) 
F 16

>  <SCORE>  (110) 
-14.584

>  <name>  (110) 
109

>  <ligand_id>  (110) 
109

>  <original_smiles>  (110) 
[H]Oc1c([H])c([H])c([H])c([H])c1-c1nnc(N([H])[H])c(N2C([H])([H])C([H])([H])N(c3c(Cl)c(C([H])([H])[H])c(C([H])([H])Oc4c([H])c(-c5sc([H])nc5C([H])([H])[H])c([H])c([H])c4C([H])([H])N([H])C(=O)C4([H])N(C(=O)C([H])(N([H])C(=O)C5(F)C([H])([H])C5([H])[H])C(C([H])([H])[H])(C([H])([H])[H])C([H])([H])[H])C([H])([H])C([H])(O[H])C4([H])[H])c(C([H])([H])[H])c3Cl)C([H])([H])C2([H])[H])c1[H]

>  <smiles>  (110) 
[H]Oc1c([H])c([H])c([H])c([H])c1-c1nnc(N([H])[H])c(N2C([H])([H])C([H])([H])N(c3c(Cl)c(C([H])([H])[H])c(C([H])([H])Oc4c([H])c(-c5sc([H])nc5C([H])([H])[H])c([H])c([H])c4C([H])([H])N([H])C(=O)C4([H])N(C(=O)C([H])(N([H])C(=O)C5(F)C([H])([H])C5([H])[H])C(C([H])([H])[H])(C([H])([H])[H])C([H])([H])[H])C([H])([H])C([H])(O[H])C4([H])[H])c(C([H])([H])[H])c3Cl)C([H])([H])C2([H])[H])c1[H]

$$$$
110:0:0
     RDKit          3D

 80 88  0  0  1  0  0  0  0  0999 V2000
  -38.6210   14.1370  -23.8820 O   0  0  0  0  0  0  0  0  0  0  0  0
  -39.5230   18.5110  -25.2560 C   0  0  0  0  0  3  0  0  0  0  0  0
  -39.7910   21.1100  -24.6450 C   0  0  0  0  0  3  0  0  0  0  0  0
  -39.5240   19.5110  -26.2250 C   0  0  0  0  0  0  0  0  0  0  0  0
  -39.7040   18.9470  -23.9420 C   0  0  0  0  0  0  0  0  0  0  0  0
  -40.2890   15.7300  -23.4140 C   0  0  0  0  0  2  0  0  0  0  0  0
  -40.6930   17.0490  -22.7280 C   0  0  0  0  0  2  0  0  0  0  0  0
  -38.3150   17.6860  -22.4670 C   0  0  0  0  0  2  0  0  0  0  0  0
  -38.8750   15.2600  -23.0250 C   0  0  0  0  0  3  0  0  0  0  0  0
  -37.8620   16.4270  -23.2210 C   0  0  0  0  0  3  0  0  0  0  0  0
  -39.6350   20.8160  -25.9280 N   0  0  0  0  0  0  0  0  0  0  0  0
  -39.8340   20.2430  -23.6390 N   0  0  0  0  0  0  0  0  0  0  0  0
  -39.6630   18.0810  -22.8460 N   0  0  0  0  0  0  0  0  0  0  0  0
  -36.6470   16.1600  -22.7450 F   0  0  0  0  0  0  0  0  0  0  0  0
  -40.2890   19.2480  -28.5470 N   0  0  0  0  0  0  0  0  0  0  0  0
  -39.9970   19.3430  -29.9940 C   0  0  0  0  0  2  0  0  0  0  0  0
  -41.2580   19.3620  -30.8910 C   0  0  0  0  0  2  0  0  0  0  0  0
  -42.3320   18.5650  -30.3100 N   0  0  0  0  0  0  0  0  0  0  0  0
  -42.7660   18.8880  -28.9570 C   0  0  0  0  0  2  0  0  0  0  0  0
  -41.6670   19.5520  -28.1050 C   0  0  0  0  0  2  0  0  0  0  0  0
  -39.2850   19.2240  -27.6340 C   0  0  0  0  0  3  0  0  0  0  0  0
  -38.0170   18.9610  -27.9800 N   0  0  0  0  0  0  0  0  0  0  0  0
  -37.3150   18.9970  -27.2580 H   0  0  0  0  0  0  0  0  0  0  0  0
  -37.7350   18.7610  -28.9230 H   0  0  0  0  0  0  0  0  0  0  0  0
  -43.2740   17.9990  -31.1990 C   0  0  0  0  0  0  0  0  0  0  0  0
  -44.5780   18.5130  -31.3740 C   0  0  0  0  0  3  0  0  0  0  0  0
  -45.4670   17.8550  -32.2670 C   0  0  0  0  0  0  0  0  0  0  0  0
  -45.0410   16.7490  -32.9410 N   0  0  0  0  0  0  0  0  0  0  0  0
  -43.8150   16.2430  -32.7820 N   0  0  0  0  0  0  0  0  0  0  0  0
  -42.9500   16.8420  -31.9400 C   0  0  0  0  0  0  0  0  0  0  0  0
  -41.7160   16.2350  -31.7900 N   0  0  0  0  0  0  0  0  0  0  0  0
  -41.2440   16.5340  -30.9480 H   0  0  0  0  0  0  0  0  0  0  0  0
  -41.6920   15.2380  -31.9490 H   0  0  0  0  0  0  0  0  0  0  0  0
  -46.8810   18.2980  -32.5220 C   0  0  0  0  0  0  0  0  0  0  0  0
  -47.8180   17.5900  -33.3450 C   0  0  0  0  0  0  0  0  0  0  0  0
  -49.1360   18.0570  -33.5230 C   0  0  0  0  0  3  0  0  0  0  0  0
  -49.5710   19.2330  -32.8970 C   0  0  0  0  0  3  0  0  0  0  0  0
  -48.6770   19.9520  -32.0920 C   0  0  0  0  0  3  0  0  0  0  0  0
  -47.3600   19.4900  -31.9140 C   0  0  0  0  0  3  0  0  0  0  0  0
  -47.5100   16.4340  -34.0050 O   0  0  0  0  0  0  0  0  0  0  0  0
  -46.5950   16.1950  -33.8510 H   0  0  0  0  0  0  0  0  0  0  0  0
  -37.4220   13.4740  -23.7580 C   0  0  0  0  0  0  0  0  0  0  0  0
  -36.7490   13.3380  -22.5190 C   0  0  0  0  0  3  0  0  0  0  0  0
  -35.4860   12.7250  -22.4290 C   0  0  0  0  0  0  0  0  0  0  0  0
  -35.5780   12.2930  -24.8330 C   0  0  0  0  0  3  0  0  0  0  0  0
  -36.8460   12.9100  -24.9200 C   0  0  0  0  0  0  0  0  0  0  0  0
  -34.8980   12.2180  -23.6050 C   0  0  0  0  0  3  0  0  0  0  0  0
  -35.3040   12.1390  -19.9270 C   0  0  0  0  0  0  0  0  0  0  0  0
  -33.1450   12.4990  -19.3500 C   0  0  0  0  0  3  0  0  0  0  0  0
  -34.8130   12.5830  -21.1390 C   0  0  0  0  0  0  0  0  0  0  0  0
  -34.3390   12.0930  -18.9200 N   0  0  0  0  0  0  0  0  0  0  0  0
  -33.1150   12.9920  -21.0300 S   0  0  0  0  0  0  0  0  0  0  0  0
  -36.6930   11.6880  -19.5940 C   0  0  0  0  0  1  0  0  0  0  0  0
  -37.6080   12.9560  -26.2450 C   0  0  0  0  0  2  0  0  0  0  0  0
  -36.2070   13.7080  -28.1450 C   0  0  0  0  0  0  0  0  0  0  0  0
  -36.4600   14.9040  -27.9810 O   0  0  0  0  0  0  0  0  0  0  0  0
  -36.7650   12.7390  -27.4140 N   0  0  0  0  0  0  0  0  0  0  0  0
  -36.5230   11.7820  -27.6300 H   0  0  0  0  0  0  0  0  0  0  0  0
  -36.1340   14.4270  -31.1700 C   0  0  0  0  0  0  0  0  0  0  0  0
  -35.1610   13.2600  -29.1790 C   0  0  0  0  0  3  0  0  0  0  0  0
  -33.6790   14.4830  -30.6450 C   0  0  0  0  0  2  0  0  0  0  0  0
  -35.0780   14.1260  -30.3710 N   0  0  0  0  0  0  0  0  0  0  0  0
  -37.2580   13.9580  -30.9630 O   0  0  0  0  0  0  0  0  0  0  0  0
  -33.7640   13.3080  -28.5370 C   0  0  0  0  0  2  0  0  0  0  0  0
  -32.8300   13.6650  -29.6750 C   0  0  0  0  0  3  0  0  0  0  0  0
  -32.3890   12.4920  -30.3420 O   0  0  0  0  0  0  0  0  0  0  0  0
  -33.1530   12.0190  -30.6590 H   0  0  0  0  0  0  0  0  0  0  0  0
  -35.9430   15.3470  -32.4050 C   0  0  0  0  0  3  0  0  0  0  0  0
  -36.6950   14.7430  -33.5190 N   0  0  0  0  0  0  0  0  0  0  0  0
  -36.1790   14.2050  -34.6330 C   0  0  0  0  0  0  0  0  0  0  0  0
  -34.9700   14.2350  -34.8760 O   0  0  0  0  0  0  0  0  0  0  0  0
  -37.6890   14.6190  -33.3790 H   0  0  0  0  0  0  0  0  0  0  0  0
  -37.1700   13.5610  -35.5650 C   0  0  1  0  0  0  0  0  0  0  0  0
  -38.4370   13.4130  -35.0230 F   0  0  0  0  0  0  0  0  0  0  0  0
  -37.0890   13.8460  -37.0470 C   0  0  0  0  0  2  0  0  0  0  0  0
  -36.7120   12.4800  -36.5200 C   0  0  0  0  0  2  0  0  0  0  0  0
  -35.7340   17.4520  -30.9200 C   0  0  0  0  0  1  0  0  0  0  0  0
  -35.9740   17.6890  -33.3790 C   0  0  0  0  0  1  0  0  0  0  0  0
  -37.9360   16.9650  -32.0010 C   0  0  0  0  0  1  0  0  0  0  0  0
  -36.4060   16.8320  -32.1700 C   0  0  1  0  0  0  0  0  0  0  0  0
  1 42  1  0
  2  5  1  0
  3 12  1  0
  4 11  1  0
  4  2  2  0
  5 12  2  0
  5 13  1  0
  6  9  1  0
  6  7  1  0
  9  1  1  0
 10  9  1  0
 10 14  1  0
 10  8  1  0
 11  3  2  0
 13  7  1  0
 13  8  1  0
 15 20  1  0
 15 21  1  0
 16 15  1  0
 17 18  1  0
 17 16  1  0
 18 19  1  0
 19 20  1  0
 21 22  1  0
 21  4  1  0
 22 23  1  0
 24 22  1  0
 25 18  1  0
 26 25  1  0
 27 26  2  0
 28 29  2  0
 28 27  1  0
 29 30  1  0
 30 31  1  0
 30 25  2  0
 31 32  1  0
 33 31  1  0
 34 27  1  0
 34 39  1  0
 35 34  2  0
 36 35  1  0
 36 37  2  0
 37 38  1  0
 38 39  2  0
 40 41  1  0
 40 35  1  0
 42 43  1  0
 43 44  2  0
 44 50  1  0
 45 47  2  0
 46 45  1  0
 46 42  2  0
 47 44  1  0
 48 53  1  0
 48 51  1  0
 49 51  2  0
 50 52  1  0
 50 48  2  0
 52 49  1  0
 54 46  1  0
 55 56  2  0
 55 57  1  0
 57 54  1  0
 58 57  1  0
 59 63  2  0
 59 62  1  0
 60 64  1  0
 60 55  1  0
 61 62  1  0
 61 65  1  0
 62 60  1  0
 65 66  1  0
 65 64  1  0
 67 66  1  0
 68 80  1  0
 68 59  1  0
 69 72  1  0
 69 68  1  0
 70 69  1  0
 71 70  2  0
 73 74  1  1
 73 70  1  0
 75 76  1  0
 75 73  1  0
 76 73  1  0
 80 78  1  6
 80 79  1  0
 80 77  1  0
M  ISO  4   1 101   9 101  15 100  21 100
M  END
>  <TORSDO>  (111) 
F 15

>  <SCORE>  (111) 
-14.810

>  <name>  (111) 
110

>  <ligand_id>  (111) 
110

>  <original_smiles>  (111) 
[H]Oc1c([H])c([H])c([H])c([H])c1-c1nnc(N([H])[H])c(N2C([H])([H])C([H])([H])N(C(c3nc([H])nc(N4C([H])([H])C([H])([H])C([H])(Oc5c([H])c(-c6sc([H])nc6C([H])([H])[H])c([H])c([H])c5C([H])([H])N([H])C(=O)C5([H])N(C(=O)C([H])(N([H])C(=O)C6(F)C([H])([H])C6([H])[H])C(C([H])([H])[H])(C([H])([H])[H])C([H])([H])[H])C([H])([H])C([H])(O[H])C5([H])[H])C([H])(F)C4([H])[H])c3[H])=[N+]([H])[H])C([H])([H])C2([H])[H])c1[H]

>  <smiles>  (111) 
[H]Oc1c([H])c([H])c([H])c([H])c1-c1nnc(N([H])[H])c(N2C([H])([H])C([H])([H])N(C(c3nc([H])nc(N4C([H])([H])C([H])([H])C([H])(Oc5c([H])c(-c6sc([H])nc6C([H])([H])[H])c([H])c([H])c5C([H])([H])N([H])C(=O)C5([H])N(C(=O)C([H])(N([H])C(=O)C6(F)C([H])([H])C6([H])[H])C(C([H])([H])[H])(C([H])([H])[H])C([H])([H])[H])C([H])([H])C([H])(O[H])C5([H])[H])C([H])(F)C4([H])[H])c3[H])=[N+]([H])[H])C([H])([H])C2([H])[H])c1[H]

$$$$
111:0:0
     RDKit          3D

 74 81  0  0  1  0  0  0  0  0999 V2000
  -37.3690   13.4250  -23.6770 C   0  0  0  0  0  0  0  0  0  0  0  0
  -36.6700   13.3740  -22.4570 C   0  0  0  0  0  3  0  0  0  0  0  0
  -35.3810   12.8130  -22.3830 C   0  0  0  0  0  0  0  0  0  0  0  0
  -35.4830   12.3680  -24.7900 C   0  0  0  0  0  3  0  0  0  0  0  0
  -36.7850   12.9140  -24.8590 C   0  0  0  0  0  0  0  0  0  0  0  0
  -34.7910   12.3220  -23.5660 C   0  0  0  0  0  3  0  0  0  0  0  0
  -35.1520   12.2260  -19.8840 C   0  0  0  0  0  0  0  0  0  0  0  0
  -32.9990   12.6640  -19.3310 C   0  0  0  0  0  3  0  0  0  0  0  0
  -34.6900   12.6920  -21.1010 C   0  0  0  0  0  0  0  0  0  0  0  0
  -34.1740   12.2130  -18.8880 N   0  0  0  0  0  0  0  0  0  0  0  0
  -33.0080   13.1610  -21.0120 S   0  0  0  0  0  0  0  0  0  0  0  0
  -36.5190   11.7260  -19.5330 C   0  0  0  0  0  1  0  0  0  0  0  0
  -37.5660   12.9340  -26.1730 C   0  0  0  0  0  2  0  0  0  0  0  0
  -36.2020   13.6880  -28.1030 C   0  0  0  0  0  0  0  0  0  0  0  0
  -36.4670   14.8830  -27.9490 O   0  0  0  0  0  0  0  0  0  0  0  0
  -36.7370   12.7190  -27.3550 N   0  0  0  0  0  0  0  0  0  0  0  0
  -36.4900   11.7620  -27.5670 H   0  0  0  0  0  0  0  0  0  0  0  0
  -36.1430   14.4130  -31.1290 C   0  0  0  0  0  0  0  0  0  0  0  0
  -35.1620   13.2440  -29.1460 C   0  0  0  0  0  3  0  0  0  0  0  0
  -33.6850   14.4690  -30.6180 C   0  0  0  0  0  2  0  0  0  0  0  0
  -35.0820   14.1100  -30.3370 N   0  0  0  0  0  0  0  0  0  0  0  0
  -37.2650   13.9380  -30.9170 O   0  0  0  0  0  0  0  0  0  0  0  0
  -33.7600   13.2860  -28.5130 C   0  0  0  0  0  2  0  0  0  0  0  0
  -32.8320   13.6490  -29.6530 C   0  0  0  0  0  3  0  0  0  0  0  0
  -32.3900   12.4800  -30.3270 O   0  0  0  0  0  0  0  0  0  0  0  0
  -33.1520   12.0080  -30.6460 H   0  0  0  0  0  0  0  0  0  0  0  0
  -35.9630   15.3350  -32.3650 C   0  0  0  0  0  3  0  0  0  0  0  0
  -35.7910   17.4240  -30.8530 C   0  0  0  0  0  1  0  0  0  0  0  0
  -35.9750   17.6860  -33.3150 C   0  0  0  0  0  1  0  0  0  0  0  0
  -37.9640   16.9520  -31.9910 C   0  0  0  0  0  1  0  0  0  0  0  0
  -36.4330   16.8170  -32.1240 C   0  0  1  0  0  0  0  0  0  0  0  0
  -36.7170   14.7280  -33.4760 N   0  0  0  0  0  0  0  0  0  0  0  0
  -36.2040   14.2060  -34.6000 C   0  0  0  0  0  0  0  0  0  0  0  0
  -34.9970   14.2530  -34.8530 O   0  0  0  0  0  0  0  0  0  0  0  0
  -37.7090   14.5950  -33.3310 H   0  0  0  0  0  0  0  0  0  0  0  0
  -37.1950   13.5560  -35.5280 C   0  0  1  0  0  0  0  0  0  0  0  0
  -38.4550   13.3880  -34.9750 F   0  0  0  0  0  0  0  0  0  0  0  0
  -37.1320   13.8500  -37.0100 C   0  0  0  0  0  2  0  0  0  0  0  0
  -36.7330   12.4860  -36.4940 C   0  0  0  0  0  2  0  0  0  0  0  0
  -38.6340   13.9540  -23.6760 O   0  0  0  0  0  0  0  0  0  0  0  0
  -40.1960   17.0050  -24.8400 C   0  0  0  0  0  3  0  0  0  0  0  0
  -40.0850   15.7450  -24.2440 C   0  0  0  0  0  3  0  0  0  0  0  0
  -37.8060   17.2750  -24.5320 C   0  0  0  0  0  2  0  0  0  0  0  0
  -39.0170   17.7300  -25.0700 C   0  0  0  0  0  3  0  0  0  0  0  0
  -38.8040   15.2920  -23.9050 C   0  0  0  0  0  0  0  0  0  0  0  0
  -37.7000   16.0720  -23.9470 N   0  0  0  0  0  0  0  0  0  0  0  0
  -38.9770   18.5550  -26.2490 C   0  0  0  0  0  3  0  0  0  0  0  0
  -39.2590   19.8570  -26.4200 C   0  0  0  0  0  0  0  0  0  0  0  0
  -39.5550   20.8590  -25.3180 C   0  0  0  0  0  1  0  0  0  0  0  0
  -40.2330   19.5700  -28.5180 N   0  0  0  0  0  0  0  0  0  0  0  0
  -40.0020   19.3120  -29.9430 C   0  0  0  0  0  2  0  0  0  0  0  0
  -41.2670   19.4340  -30.7930 C   0  0  0  0  0  2  0  0  0  0  0  0
  -42.3120   18.6020  -30.2240 N   0  0  0  0  0  0  0  0  0  0  0  0
  -42.6780   18.7860  -28.8300 C   0  0  0  0  0  2  0  0  0  0  0  0
  -41.6220   19.5480  -28.0000 C   0  0  0  0  0  2  0  0  0  0  0  0
  -39.2960   20.2630  -27.8130 C   0  0  0  0  0  0  0  0  0  0  0  0
  -38.4650   21.0220  -28.3210 O   0  0  0  0  0  0  0  0  0  0  0  0
  -43.2380   18.0090  -31.1060 C   0  0  0  0  0  0  0  0  0  0  0  0
  -44.5410   18.5150  -31.2890 C   0  0  0  0  0  3  0  0  0  0  0  0
  -45.4160   17.8500  -32.1910 C   0  0  0  0  0  0  0  0  0  0  0  0
  -44.9790   16.7410  -32.8560 N   0  0  0  0  0  0  0  0  0  0  0  0
  -43.7530   16.2410  -32.6790 N   0  0  0  0  0  0  0  0  0  0  0  0
  -42.8970   16.8490  -31.8350 C   0  0  0  0  0  0  0  0  0  0  0  0
  -41.6590   16.2540  -31.6720 N   0  0  0  0  0  0  0  0  0  0  0  0
  -41.1760   16.5930  -30.8510 H   0  0  0  0  0  0  0  0  0  0  0  0
  -41.6210   15.2540  -31.8060 H   0  0  0  0  0  0  0  0  0  0  0  0
  -46.8280   18.2880  -32.4610 C   0  0  0  0  0  0  0  0  0  0  0  0
  -47.7420   17.6010  -33.3270 C   0  0  0  0  0  0  0  0  0  0  0  0
  -49.0600   18.0620  -33.5150 C   0  0  0  0  0  3  0  0  0  0  0  0
  -49.5200   19.2120  -32.8570 C   0  0  0  0  0  3  0  0  0  0  0  0
  -48.6480   19.9130  -32.0140 C   0  0  0  0  0  3  0  0  0  0  0  0
  -47.3300   19.4570  -31.8270 C   0  0  0  0  0  3  0  0  0  0  0  0
  -47.4110   16.4690  -34.0190 O   0  0  0  0  0  0  0  0  0  0  0  0
  -46.4990   16.2260  -33.8580 H   0  0  0  0  0  0  0  0  0  0  0  0
  1 40  1  0
  1  2  1  0
  2  3  2  0
  3  9  1  0
  4  6  2  0
  5  4  1  0
  5  1  2  0
  6  3  1  0
  7 12  1  0
  7 10  1  0
  8 10  2  0
  9 11  1  0
  9  7  2  0
 11  8  1  0
 13  5  1  0
 14 15  2  0
 14 16  1  0
 16 13  1  0
 17 16  1  0
 18 22  2  0
 18 21  1  0
 19 23  1  0
 19 14  1  0
 20 21  1  0
 20 24  1  0
 21 19  1  0
 24 25  1  0
 24 23  1  0
 26 25  1  0
 27 31  1  0
 27 18  1  0
 31 29  1  6
 31 30  1  0
 31 28  1  0
 32 35  1  0
 32 27  1  0
 33 32  1  0
 34 33  2  0
 36 37  1  1
 36 33  1  0
 38 39  1  0
 38 36  1  0
 39 36  1  0
 41 42  2  0
 42 45  1  0
 43 46  1  0
 44 47  1  0
 44 41  1  0
 44 43  1  0
 45 40  1  0
 46 45  2  0
 48 47  2  0
 48 49  1  0
 50 55  1  0
 50 56  1  0
 51 50  1  0
 52 53  1  0
 52 51  1  0
 53 54  1  0
 54 55  1  0
 56 48  1  0
 57 56  2  0
 58 53  1  0
 59 58  1  0
 60 59  2  0
 61 62  2  0
 61 60  1  0
 62 63  1  0
 63 64  1  0
 63 58  2  0
 64 65  1  0
 66 64  1  0
 67 60  1  0
 67 72  1  0
 68 67  2  0
 69 68  1  0
 69 70  2  0
 70 71  1  0
 71 72  2  0
 73 74  1  0
 73 68  1  0
M  ISO  4  40 101  45 101  50 100  56 100
M  END
>  <TORSDO>  (112) 
F 16

>  <SCORE>  (112) 
-14.508

>  <name>  (112) 
111

>  <ligand_id>  (112) 
111

>  <original_smiles>  (112) 
[H]Oc1c([H])c([H])c([H])c([H])c1-c1nnc(N([H])[H])c(N2C([H])([H])C([H])([H])N(C(=O)C(=C([H])c3c([H])nc(Oc4c([H])c(-c5sc([H])nc5C([H])([H])[H])c([H])c([H])c4C([H])([H])N([H])C(=O)C4([H])N(C(=O)C([H])(N([H])C(=O)C5(F)C([H])([H])C5([H])[H])C(C([H])([H])[H])(C([H])([H])[H])C([H])([H])[H])C([H])([H])C([H])(O[H])C4([H])[H])c([H])c3[H])C([H])([H])[H])C([H])([H])C2([H])[H])c1[H]

>  <smiles>  (112) 
[H]Oc1c([H])c([H])c([H])c([H])c1-c1nnc(N([H])[H])c(N2C([H])([H])C([H])([H])N(C(=O)C(=C([H])c3c([H])nc(Oc4c([H])c(-c5sc([H])nc5C([H])([H])[H])c([H])c([H])c4C([H])([H])N([H])C(=O)C4([H])N(C(=O)C([H])(N([H])C(=O)C5(F)C([H])([H])C5([H])[H])C(C([H])([H])[H])(C([H])([H])[H])C([H])([H])[H])C([H])([H])C([H])(O[H])C4([H])[H])c([H])c3[H])C([H])([H])[H])C([H])([H])C2([H])[H])c1[H]

$$$$
112:0:0
     RDKit          3D

 80 88  0  0  1  0  0  0  0  0999 V2000
  -38.6350   14.1810  -23.7810 O   0  0  0  0  0  0  0  0  0  0  0  0
  -38.0730   16.4290  -24.4410 C   0  0  0  0  0  3  0  0  0  0  0  0
  -38.8770   15.9890  -22.2020 C   0  0  0  0  0  3  0  0  0  0  0  0
  -38.5560   15.5190  -23.4860 C   0  0  0  0  0  0  0  0  0  0  0  0
  -37.9100   17.7840  -24.0830 C   0  0  0  0  0  0  0  0  0  0  0  0
  -38.6410   17.3390  -21.9190 C   0  0  0  0  0  0  0  0  0  0  0  0
  -38.3960   18.2610  -27.2640 C   0  0  0  0  0  2  0  0  0  0  0  0
  -37.1490   18.3900  -26.3740 C   0  0  0  0  0  2  0  0  0  0  0  0
  -38.2490   20.0460  -24.9800 C   0  0  0  0  0  2  0  0  0  0  0  0
  -39.2860   19.5320  -27.2450 C   0  0  0  0  0  3  0  0  0  0  0  0
  -39.6010   19.9940  -25.7590 C   0  0  1  0  0  0  0  0  0  0  0  0
  -40.5790   19.0860  -24.9570 C   0  0  0  0  0  1  0  0  0  0  0  0
  -40.1350   21.4440  -25.7370 C   0  0  0  0  0  1  0  0  0  0  0  0
  -38.1560   18.2080  -22.8200 N   0  0  0  0  0  0  0  0  0  0  0  0
  -37.5220   18.7740  -25.0160 N   0  0  0  0  0  0  0  0  0  0  0  0
  -40.3900   19.2380  -28.1890 N   0  0  0  0  0  0  0  0  0  0  0  0
  -40.0420   19.5510  -29.5950 C   0  0  0  0  0  2  0  0  0  0  0  0
  -41.2520   19.5340  -30.5810 C   0  0  0  0  0  2  0  0  0  0  0  0
  -42.3160   18.6570  -30.1010 N   0  0  0  0  0  0  0  0  0  0  0  0
  -42.7450   18.8230  -28.7180 C   0  0  0  0  0  2  0  0  0  0  0  0
  -41.7550   19.6930  -27.9170 C   0  0  0  0  0  2  0  0  0  0  0  0
  -43.1730   18.0210  -31.0210 C   0  0  0  0  0  0  0  0  0  0  0  0
  -44.4950   18.4550  -31.2440 C   0  0  0  0  0  3  0  0  0  0  0  0
  -45.3050   17.7460  -32.1720 C   0  0  0  0  0  0  0  0  0  0  0  0
  -44.7880   16.6650  -32.8240 N   0  0  0  0  0  0  0  0  0  0  0  0
  -43.5420   16.2310  -32.6100 N   0  0  0  0  0  0  0  0  0  0  0  0
  -42.7480   16.8820  -31.7380 C   0  0  0  0  0  0  0  0  0  0  0  0
  -41.4890   16.3470  -31.5310 N   0  0  0  0  0  0  0  0  0  0  0  0
  -41.0660   16.7080  -30.6840 H   0  0  0  0  0  0  0  0  0  0  0  0
  -41.4110   15.3470  -31.6430 H   0  0  0  0  0  0  0  0  0  0  0  0
  -46.7300   18.1110  -32.4840 C   0  0  0  0  0  0  0  0  0  0  0  0
  -47.5870   17.3610  -33.3540 C   0  0  0  0  0  0  0  0  0  0  0  0
  -48.9200   17.7560  -33.5860 C   0  0  0  0  0  3  0  0  0  0  0  0
  -49.4470   18.8990  -32.9690 C   0  0  0  0  0  3  0  0  0  0  0  0
  -48.6310   19.6590  -32.1200 C   0  0  0  0  0  3  0  0  0  0  0  0
  -47.3000   19.2680  -31.8880 C   0  0  0  0  0  3  0  0  0  0  0  0
  -47.1850   16.2300  -34.0080 O   0  0  0  0  0  0  0  0  0  0  0  0
  -46.2660   16.0400  -33.8140 H   0  0  0  0  0  0  0  0  0  0  0  0
  -38.9020   17.8560  -20.6600 N   0  0  0  0  0  0  0  0  0  0  0  0
  -39.1210   17.2480  -19.8810 H   0  0  0  0  0  0  0  0  0  0  0  0
  -38.5850   18.7870  -20.4130 H   0  0  0  0  0  0  0  0  0  0  0  0
  -37.4220   13.5410  -23.7220 C   0  0  0  0  0  0  0  0  0  0  0  0
  -36.7340   13.4540  -22.4900 C   0  0  0  0  0  3  0  0  0  0  0  0
  -35.4500   12.8820  -22.4090 C   0  0  0  0  0  0  0  0  0  0  0  0
  -35.5420   12.4520  -24.8170 C   0  0  0  0  0  3  0  0  0  0  0  0
  -36.8370   13.0130  -24.8950 C   0  0  0  0  0  0  0  0  0  0  0  0
  -34.8540   12.4000  -23.5920 C   0  0  0  0  0  3  0  0  0  0  0  0
  -35.2260   12.2890  -19.9120 C   0  0  0  0  0  0  0  0  0  0  0  0
  -33.0730   12.7110  -19.3520 C   0  0  0  0  0  3  0  0  0  0  0  0
  -34.7600   12.7550  -21.1250 C   0  0  0  0  0  0  0  0  0  0  0  0
  -34.2510   12.2670  -18.9130 N   0  0  0  0  0  0  0  0  0  0  0  0
  -33.0730   13.2100  -21.0310 S   0  0  0  0  0  0  0  0  0  0  0  0
  -36.5980   11.7950  -19.5680 C   0  0  0  0  0  1  0  0  0  0  0  0
  -37.6120   13.0340  -26.2100 C   0  0  0  0  0  2  0  0  0  0  0  0
  -36.2120   13.7700  -28.1180 C   0  0  0  0  0  0  0  0  0  0  0  0
  -36.4500   14.9690  -27.9560 O   0  0  0  0  0  0  0  0  0  0  0  0
  -36.7780   12.8080  -27.3840 N   0  0  0  0  0  0  0  0  0  0  0  0
  -36.5480   11.8490  -27.6010 H   0  0  0  0  0  0  0  0  0  0  0  0
  -36.1440   14.4750  -31.1450 C   0  0  0  0  0  0  0  0  0  0  0  0
  -35.1760   13.3050  -29.1550 C   0  0  0  0  0  3  0  0  0  0  0  0
  -33.6860   14.4970  -30.6370 C   0  0  0  0  0  2  0  0  0  0  0  0
  -35.0870   14.1620  -30.3520 N   0  0  0  0  0  0  0  0  0  0  0  0
  -37.2740   14.0200  -30.9320 O   0  0  0  0  0  0  0  0  0  0  0  0
  -33.7750   13.3330  -28.5220 C   0  0  0  0  0  2  0  0  0  0  0  0
  -32.8440   13.6710  -29.6670 C   0  0  0  0  0  3  0  0  0  0  0  0
  -32.4230   12.4890  -30.3300 O   0  0  0  0  0  0  0  0  0  0  0  0
  -33.1940   12.0270  -30.6420 H   0  0  0  0  0  0  0  0  0  0  0  0
  -35.9480   15.3890  -32.3850 C   0  0  0  0  0  3  0  0  0  0  0  0
  -35.7270   17.5020  -30.9130 C   0  0  0  0  0  1  0  0  0  0  0  0
  -35.9710   17.7230  -33.3740 C   0  0  0  0  0  1  0  0  0  0  0  0
  -37.9320   17.0160  -31.9850 C   0  0  0  0  0  1  0  0  0  0  0  0
  -36.4030   16.8760  -32.1580 C   0  0  1  0  0  0  0  0  0  0  0  0
  -36.6980   14.7810  -33.4970 N   0  0  0  0  0  0  0  0  0  0  0  0
  -36.1830   14.2250  -34.6010 C   0  0  0  0  0  0  0  0  0  0  0  0
  -34.9710   14.2360  -34.8370 O   0  0  0  0  0  0  0  0  0  0  0  0
  -37.6950   14.6710  -33.3620 H   0  0  0  0  0  0  0  0  0  0  0  0
  -37.1750   13.5820  -35.5340 C   0  0  1  0  0  0  0  0  0  0  0  0
  -38.4490   13.4620  -35.0000 F   0  0  0  0  0  0  0  0  0  0  0  0
  -37.0790   13.8460  -37.0190 C   0  0  0  0  0  2  0  0  0  0  0  0
  -36.7250   12.4820  -36.4710 C   0  0  0  0  0  2  0  0  0  0  0  0
  1 42  1  0
  1  4  1  0
  2  5  2  0
  2  4  1  0
  3  6  1  0
  4  3  2  0
  5 14  1  0
  6 39  1  0
  7  8  1  0
  8 15  1  0
 10  7  1  0
 10 11  1  0
 11 13  1  6
 11  9  1  0
 11 12  1  0
 14  6  2  0
 15  9  1  0
 15  5  1  0
 16 17  1  0
 16 21  1  0
 16 10  1  0
 18 19  1  0
 18 17  1  0
 19 20  1  0
 20 21  1  0
 22 19  1  0
 23 22  1  0
 24 23  2  0
 25 26  2  0
 25 24  1  0
 26 27  1  0
 27 28  1  0
 27 22  2  0
 28 29  1  0
 30 28  1  0
 31 24  1  0
 31 36  1  0
 32 31  2  0
 33 32  1  0
 33 34  2  0
 34 35  1  0
 35 36  2  0
 37 38  1  0
 37 32  1  0
 39 41  1  0
 39 40  1  0
 42 43  1  0
 43 44  2  0
 44 50  1  0
 45 47  2  0
 46 45  1  0
 46 42  2  0
 47 44  1  0
 48 53  1  0
 48 51  1  0
 49 51  2  0
 50 52  1  0
 50 48  2  0
 52 49  1  0
 54 46  1  0
 55 56  2  0
 55 57  1  0
 57 54  1  0
 58 57  1  0
 59 63  2  0
 59 62  1  0
 60 64  1  0
 60 55  1  0
 61 62  1  0
 61 65  1  0
 62 60  1  0
 65 66  1  0
 65 64  1  0
 67 66  1  0
 68 72  1  0
 68 59  1  0
 72 70  1  6
 72 71  1  0
 72 69  1  0
 73 76  1  0
 73 68  1  0
 74 73  1  0
 75 74  2  0
 77 78  1  1
 77 74  1  0
 79 80  1  0
 79 77  1  0
 80 77  1  0
M  ISO  4   1 101   4 101  10 100  16 100
M  END
>  <TORSDO>  (113) 
F 16

>  <SCORE>  (113) 
-14.635

>  <name>  (113) 
112

>  <ligand_id>  (113) 
112

>  <original_smiles>  (113) 
[H]Oc1c([H])c([H])c([H])c([H])c1-c1nnc(N([H])[H])c(N2C([H])([H])C([H])([H])N(C3([H])C([H])([H])C([H])([H])N(c4nc(N([H])[H])c([H])c(Oc5c([H])c(-c6sc([H])nc6C([H])([H])[H])c([H])c([H])c5C([H])([H])N([H])C(=O)C5([H])N(C(=O)C([H])(N([H])C(=O)C6(F)C([H])([H])C6([H])[H])C(C([H])([H])[H])(C([H])([H])[H])C([H])([H])[H])C([H])([H])C([H])(O[H])C5([H])[H])c4[H])C([H])([H])C3(C([H])([H])[H])C([H])([H])[H])C([H])([H])C2([H])[H])c1[H]

>  <smiles>  (113) 
[H]Oc1c([H])c([H])c([H])c([H])c1-c1nnc(N([H])[H])c(N2C([H])([H])C([H])([H])N(C3([H])C([H])([H])C([H])([H])N(c4nc(N([H])[H])c([H])c(Oc5c([H])c(-c6sc([H])nc6C([H])([H])[H])c([H])c([H])c5C([H])([H])N([H])C(=O)C5([H])N(C(=O)C([H])(N([H])C(=O)C6(F)C([H])([H])C6([H])[H])C(C([H])([H])[H])(C([H])([H])[H])C([H])([H])[H])C([H])([H])C([H])(O[H])C5([H])[H])c4[H])C([H])([H])C3(C([H])([H])[H])C([H])([H])[H])C([H])([H])C2([H])[H])c1[H]

$$$$
113:0:0
     RDKit          3D

 76 84  0  0  1  0  0  0  0  0999 V2000
  -37.3880   13.4480  -23.7020 C   0  0  0  0  0  0  0  0  0  0  0  0
  -36.6930   13.4070  -22.4740 C   0  0  0  0  0  3  0  0  0  0  0  0
  -35.3950   12.8630  -22.3930 C   0  0  0  0  0  0  0  0  0  0  0  0
  -35.4740   12.4230  -24.8030 C   0  0  0  0  0  3  0  0  0  0  0  0
  -36.7810   12.9550  -24.8780 C   0  0  0  0  0  0  0  0  0  0  0  0
  -34.7910   12.3830  -23.5740 C   0  0  0  0  0  3  0  0  0  0  0  0
  -35.1590   12.2870  -19.8920 C   0  0  0  0  0  0  0  0  0  0  0  0
  -33.0100   12.7370  -19.3390 C   0  0  0  0  0  3  0  0  0  0  0  0
  -34.7020   12.7520  -21.1100 C   0  0  0  0  0  0  0  0  0  0  0  0
  -34.1820   12.2810  -18.8950 N   0  0  0  0  0  0  0  0  0  0  0  0
  -33.0210   13.2280  -21.0220 S   0  0  0  0  0  0  0  0  0  0  0  0
  -36.5220   11.7780  -19.5440 C   0  0  0  0  0  1  0  0  0  0  0  0
  -37.5670   12.9530  -26.1880 C   0  0  0  0  0  2  0  0  0  0  0  0
  -36.1880   13.6930  -28.1100 C   0  0  0  0  0  0  0  0  0  0  0  0
  -36.4400   14.8880  -27.9540 O   0  0  0  0  0  0  0  0  0  0  0  0
  -36.7400   12.7290  -27.3700 N   0  0  0  0  0  0  0  0  0  0  0  0
  -36.5090   11.7710  -27.5900 H   0  0  0  0  0  0  0  0  0  0  0  0
  -36.1270   14.4110  -31.1310 C   0  0  0  0  0  0  0  0  0  0  0  0
  -35.1470   13.2410  -29.1450 C   0  0  0  0  0  3  0  0  0  0  0  0
  -33.6700   14.4580  -30.6200 C   0  0  0  0  0  2  0  0  0  0  0  0
  -35.0660   14.1040  -30.3380 N   0  0  0  0  0  0  0  0  0  0  0  0
  -37.2530   13.9470  -30.9160 O   0  0  0  0  0  0  0  0  0  0  0  0
  -33.7480   13.2910  -28.5080 C   0  0  0  0  0  2  0  0  0  0  0  0
  -32.8180   13.6420  -29.6530 C   0  0  0  0  0  3  0  0  0  0  0  0
  -32.3840   12.4660  -30.3180 O   0  0  0  0  0  0  0  0  0  0  0  0
  -33.1480   11.9970  -30.6390 H   0  0  0  0  0  0  0  0  0  0  0  0
  -35.9390   15.3300  -32.3670 C   0  0  0  0  0  3  0  0  0  0  0  0
  -35.7010   17.4360  -30.8880 C   0  0  0  0  0  1  0  0  0  0  0  0
  -35.9660   17.6720  -33.3490 C   0  0  0  0  0  1  0  0  0  0  0  0
  -37.9130   16.9620  -31.9430 C   0  0  0  0  0  1  0  0  0  0  0  0
  -36.3880   16.8200  -32.1310 C   0  0  1  0  0  0  0  0  0  0  0  0
  -36.7050   14.7290  -33.4720 N   0  0  0  0  0  0  0  0  0  0  0  0
  -36.2030   14.1800  -34.5870 C   0  0  0  0  0  0  0  0  0  0  0  0
  -34.9950   14.1930  -34.8370 O   0  0  0  0  0  0  0  0  0  0  0  0
  -37.6990   14.6150  -33.3220 H   0  0  0  0  0  0  0  0  0  0  0  0
  -37.2070   13.5450  -35.5110 C   0  0  1  0  0  0  0  0  0  0  0  0
  -38.4740   13.4180  -34.9640 F   0  0  0  0  0  0  0  0  0  0  0  0
  -37.1260   13.8190  -36.9950 C   0  0  0  0  0  2  0  0  0  0  0  0
  -36.7670   12.4510  -36.4600 C   0  0  0  0  0  2  0  0  0  0  0  0
  -38.6550   13.9530  -23.7840 O   0  0  0  0  0  0  0  0  0  0  0  0
  -39.6060   13.3790  -22.8930 C   0  0  0  0  0  2  0  0  0  0  0  0
  -41.4430   13.8040  -24.6640 C   0  0  0  0  0  2  0  0  0  0  0  0
  -41.1420   15.4180  -22.7150 C   0  0  0  0  0  2  0  0  0  0  0  0
  -41.3250   15.1110  -25.4850 C   0  0  0  0  0  2  0  0  0  0  0  0
  -40.3310   16.3960  -23.5930 C   0  0  0  0  0  2  0  0  0  0  0  0
  -41.0120   13.9500  -23.1770 C   0  0  0  0  0  3  0  0  0  0  0  0
  -40.2320   15.9260  -24.9710 N   0  0  0  0  0  0  0  0  0  0  0  0
  -40.3950   19.3290  -28.1760 N   0  0  0  0  0  0  0  0  0  0  0  0
  -40.0600   19.5910  -29.5800 C   0  0  0  0  0  2  0  0  0  0  0  0
  -41.3060   19.5690  -30.5070 C   0  0  0  0  0  2  0  0  0  0  0  0
  -42.3280   18.6430  -30.0160 N   0  0  0  0  0  0  0  0  0  0  0  0
  -42.7720   18.7600  -28.6250 C   0  0  0  0  0  2  0  0  0  0  0  0
  -41.7790   19.5700  -27.7660 C   0  0  0  0  0  2  0  0  0  0  0  0
  -38.1190   16.8440  -25.8340 C   0  0  0  0  0  3  0  0  0  0  0  0
  -38.1970   18.4760  -27.4540 C   0  0  0  0  0  3  0  0  0  0  0  0
  -39.5360   16.7700  -25.8420 C   0  0  0  0  0  0  0  0  0  0  0  0
  -39.6150   18.4280  -27.4380 C   0  0  0  0  0  0  0  0  0  0  0  0
  -37.4430   17.6980  -26.6410 N   0  0  0  0  0  0  0  0  0  0  0  0
  -40.2780   17.5580  -26.6420 N   0  0  0  0  0  0  0  0  0  0  0  0
  -43.1800   18.0220  -30.9530 C   0  0  0  0  0  0  0  0  0  0  0  0
  -44.4980   18.4660  -31.1920 C   0  0  0  0  0  3  0  0  0  0  0  0
  -45.3000   17.7700  -32.1360 C   0  0  0  0  0  0  0  0  0  0  0  0
  -44.7790   16.6950  -32.7960 N   0  0  0  0  0  0  0  0  0  0  0  0
  -43.5360   16.2550  -32.5730 N   0  0  0  0  0  0  0  0  0  0  0  0
  -42.7500   16.8920  -31.6830 C   0  0  0  0  0  0  0  0  0  0  0  0
  -41.4940   16.3510  -31.4750 N   0  0  0  0  0  0  0  0  0  0  0  0
  -41.0770   16.6890  -30.6160 H   0  0  0  0  0  0  0  0  0  0  0  0
  -41.4170   15.3550  -31.6140 H   0  0  0  0  0  0  0  0  0  0  0  0
  -46.7220   18.1410  -32.4560 C   0  0  0  0  0  0  0  0  0  0  0  0
  -47.5760   17.3940  -33.3320 C   0  0  0  0  0  0  0  0  0  0  0  0
  -48.9060   17.7910  -33.5720 C   0  0  0  0  0  3  0  0  0  0  0  0
  -49.4330   18.9370  -32.9580 C   0  0  0  0  0  3  0  0  0  0  0  0
  -48.6200   19.6930  -32.1020 C   0  0  0  0  0  3  0  0  0  0  0  0
  -47.2920   19.2980  -31.8620 C   0  0  0  0  0  3  0  0  0  0  0  0
  -47.1720   16.2620  -33.9840 O   0  0  0  0  0  0  0  0  0  0  0  0
  -46.2550   16.0720  -33.7810 H   0  0  0  0  0  0  0  0  0  0  0  0
  1  2  1  0
  2  3  2  0
  3  9  1  0
  4  6  2  0
  5  4  1  0
  5  1  2  0
  6  3  1  0
  7 12  1  0
  7 10  1  0
  8 10  2  0
  9 11  1  0
  9  7  2  0
 11  8  1  0
 13  5  1  0
 14 15  2  0
 14 16  1  0
 16 13  1  0
 17 16  1  0
 18 22  2  0
 18 21  1  0
 19 23  1  0
 19 14  1  0
 20 21  1  0
 20 24  1  0
 21 19  1  0
 24 25  1  0
 24 23  1  0
 26 25  1  0
 27 31  1  0
 27 18  1  0
 31 29  1  6
 31 30  1  0
 31 28  1  0
 32 35  1  0
 32 27  1  0
 33 32  1  0
 34 33  2  0
 36 37  1  1
 36 33  1  0
 38 39  1  0
 38 36  1  0
 39 36  1  0
 40  1  1  0
 40 41  1  0
 42 46  1  0
 44 47  1  0
 44 42  1  0
 45 43  1  0
 46 41  1  0
 46 43  1  0
 47 45  1  0
 48 53  1  0
 48 57  1  0
 49 48  1  0
 50 51  1  0
 50 49  1  0
 51 52  1  0
 52 53  1  0
 55 57  2  0
 55 58  1  0
 56 54  1  0
 56 47  1  0
 57 59  1  0
 58 54  2  0
 59 56  2  0
 60 51  1  0
 61 60  1  0
 62 61  2  0
 63 64  2  0
 63 62  1  0
 64 65  1  0
 65 66  1  0
 65 60  2  0
 66 67  1  0
 68 66  1  0
 69 62  1  0
 69 74  1  0
 70 69  2  0
 71 70  1  0
 71 72  2  0
 72 73  1  0
 73 74  2  0
 75 76  1  0
 75 70  1  0
M  ISO  4  40 101  41 101  48 100  57 100
M  END
>  <TORSDO>  (114) 
F 16

>  <SCORE>  (114) 
-14.592

>  <name>  (114) 
113

>  <ligand_id>  (114) 
113

>  <original_smiles>  (114) 
[H]Oc1c([H])c([H])c([H])c([H])c1-c1nnc(N([H])[H])c(N2C([H])([H])C([H])([H])N(c3nc(N4C([H])([H])C([H])([H])C([H])(C([H])([H])Oc5c([H])c(-c6sc([H])nc6C([H])([H])[H])c([H])c([H])c5C([H])([H])N([H])C(=O)C5([H])N(C(=O)C([H])(N([H])C(=O)C6(F)C([H])([H])C6([H])[H])C(C([H])([H])[H])(C([H])([H])[H])C([H])([H])[H])C([H])([H])C([H])(O[H])C5([H])[H])C([H])([H])C4([H])[H])c([H])nc3[H])C([H])([H])C2([H])[H])c1[H]

>  <smiles>  (114) 
[H]Oc1c([H])c([H])c([H])c([H])c1-c1nnc(N([H])[H])c(N2C([H])([H])C([H])([H])N(c3nc(N4C([H])([H])C([H])([H])C([H])(C([H])([H])Oc5c([H])c(-c6sc([H])nc6C([H])([H])[H])c([H])c([H])c5C([H])([H])N([H])C(=O)C5([H])N(C(=O)C([H])(N([H])C(=O)C6(F)C([H])([H])C6([H])[H])C(C([H])([H])[H])(C([H])([H])[H])C([H])([H])[H])C([H])([H])C([H])(O[H])C5([H])[H])C([H])([H])C4([H])[H])c([H])nc3[H])C([H])([H])C2([H])[H])c1[H]

$$$$
114:0:0
     RDKit          3D

 71 78  0  0  1  0  0  0  0  0999 V2000
  -37.3810   13.6760  -23.8290 C   0  0  0  0  0  0  0  0  0  0  0  0
  -36.7200   13.5750  -22.5600 C   0  0  0  0  0  3  0  0  0  0  0  0
  -35.4840   12.8830  -22.3820 C   0  0  0  0  0  0  0  0  0  0  0  0
  -35.5640   12.2940  -24.7400 C   0  0  0  0  0  3  0  0  0  0  0  0
  -36.8230   12.9170  -24.9030 C   0  0  0  0  0  0  0  0  0  0  0  0
  -34.8960   12.2900  -23.5110 C   0  0  0  0  0  3  0  0  0  0  0  0
  -35.2490   12.2860  -19.8660 C   0  0  0  0  0  0  0  0  0  0  0  0
  -33.0740   12.6340  -19.3270 C   0  0  0  0  0  3  0  0  0  0  0  0
  -34.7920   12.7440  -21.0880 C   0  0  0  0  0  0  0  0  0  0  0  0
  -34.2620   12.2340  -18.8750 N   0  0  0  0  0  0  0  0  0  0  0  0
  -33.0790   13.1220  -21.0110 S   0  0  0  0  0  0  0  0  0  0  0  0
  -36.6240   11.8240  -19.5010 C   0  0  0  0  0  1  0  0  0  0  0  0
  -37.5440   12.5720  -26.2070 C   0  0  0  0  0  2  0  0  0  0  0  0
  -36.2160   13.6610  -28.0690 C   0  0  0  0  0  0  0  0  0  0  0  0
  -36.5130   14.8390  -27.8640 O   0  0  0  0  0  0  0  0  0  0  0  0
  -36.7100   12.6210  -27.3950 N   0  0  0  0  0  0  0  0  0  0  0  0
  -36.3940   11.7150  -27.7150 H   0  0  0  0  0  0  0  0  0  0  0  0
  -36.1450   14.4330  -31.0890 C   0  0  0  0  0  0  0  0  0  0  0  0
  -35.1560   13.2650  -29.1120 C   0  0  0  0  0  3  0  0  0  0  0  0
  -33.6870   14.4910  -30.5780 C   0  0  0  0  0  2  0  0  0  0  0  0
  -35.0840   14.1350  -30.2970 N   0  0  0  0  0  0  0  0  0  0  0  0
  -37.2670   13.9560  -30.8790 O   0  0  0  0  0  0  0  0  0  0  0  0
  -33.7600   13.3170  -28.4700 C   0  0  0  0  0  2  0  0  0  0  0  0
  -32.8320   13.6690  -29.6130 C   0  0  0  0  0  3  0  0  0  0  0  0
  -32.3990   12.4940  -30.2830 O   0  0  0  0  0  0  0  0  0  0  0  0
  -33.1640   12.0280  -30.6030 H   0  0  0  0  0  0  0  0  0  0  0  0
  -35.9610   15.3550  -32.3230 C   0  0  0  0  0  3  0  0  0  0  0  0
  -36.7110   14.7480  -33.4380 N   0  0  0  0  0  0  0  0  0  0  0  0
  -36.1930   14.2140  -34.5530 C   0  0  0  0  0  0  0  0  0  0  0  0
  -34.9840   14.2480  -34.7960 O   0  0  0  0  0  0  0  0  0  0  0  0
  -37.7050   14.6200  -33.2980 H   0  0  0  0  0  0  0  0  0  0  0  0
  -37.1830   13.5690  -35.4870 C   0  0  1  0  0  0  0  0  0  0  0  0
  -38.4500   13.4210  -34.9460 F   0  0  0  0  0  0  0  0  0  0  0  0
  -37.0990   13.8550  -36.9680 C   0  0  0  0  0  2  0  0  0  0  0  0
  -36.7210   12.4880  -36.4410 C   0  0  0  0  0  2  0  0  0  0  0  0
  -35.7670   17.4520  -30.8260 C   0  0  0  0  0  1  0  0  0  0  0  0
  -36.0000   17.7000  -33.2850 C   0  0  0  0  0  1  0  0  0  0  0  0
  -37.9610   16.9610  -31.9130 C   0  0  0  0  0  1  0  0  0  0  0  0
  -36.4310   16.8360  -32.0810 C   0  0  1  0  0  0  0  0  0  0  0  0
  -38.5080   14.5160  -23.9240 O   0  0  0  0  0  0  0  0  0  0  0  0
  -40.4970   14.5370  -25.2950 C   0  0  0  0  0  1  0  0  0  0  0  0
  -39.0500   15.0460  -25.2000 C   0  0  0  0  0  3  0  0  0  0  0  0
  -40.1090   19.0020  -28.2500 N   0  0  0  0  0  0  0  0  0  0  0  0
  -39.7320   19.3170  -29.6420 C   0  0  0  0  0  2  0  0  0  0  0  0
  -40.9670   19.3890  -30.6120 C   0  0  0  0  0  2  0  0  0  0  0  0
  -42.1150   18.6250  -30.1050 N   0  0  0  0  0  0  0  0  0  0  0  0
  -42.5460   18.8730  -28.7270 C   0  0  0  0  0  2  0  0  0  0  0  0
  -41.4270   19.4690  -27.8380 C   0  0  0  0  0  2  0  0  0  0  0  0
  -39.7400   17.1380  -26.6240 C   0  0  0  0  0  3  0  0  0  0  0  0
  -37.3970   18.2350  -26.0570 C   0  0  0  0  0  3  0  0  0  0  0  0
  -38.8730   16.5290  -25.6660 C   0  0  0  0  0  0  0  0  0  0  0  0
  -39.3100   18.3010  -27.3030 C   0  0  0  0  0  0  0  0  0  0  0  0
  -37.7040   17.1310  -25.3760 N   0  0  0  0  0  0  0  0  0  0  0  0
  -38.1180   18.8310  -27.0070 N   0  0  0  0  0  0  0  0  0  0  0  0
  -43.0320   18.0330  -31.0080 C   0  0  0  0  0  0  0  0  0  0  0  0
  -44.3360   18.5390  -31.2200 C   0  0  0  0  0  3  0  0  0  0  0  0
  -45.2140   17.8610  -32.1100 C   0  0  0  0  0  0  0  0  0  0  0  0
  -44.7840   16.7320  -32.7430 N   0  0  0  0  0  0  0  0  0  0  0  0
  -43.5640   16.2270  -32.5450 N   0  0  0  0  0  0  0  0  0  0  0  0
  -42.7070   16.8500  -31.7090 C   0  0  0  0  0  0  0  0  0  0  0  0
  -41.4860   16.2300  -31.5140 N   0  0  0  0  0  0  0  0  0  0  0  0
  -41.0240   16.5670  -30.6780 H   0  0  0  0  0  0  0  0  0  0  0  0
  -41.4820   15.2250  -31.6160 H   0  0  0  0  0  0  0  0  0  0  0  0
  -46.6230   18.3040  -32.4040 C   0  0  0  0  0  0  0  0  0  0  0  0
  -47.5430   17.5920  -33.2430 C   0  0  0  0  0  0  0  0  0  0  0  0
  -48.8550   18.0610  -33.4560 C   0  0  0  0  0  3  0  0  0  0  0  0
  -49.3010   19.2450  -32.8510 C   0  0  0  0  0  3  0  0  0  0  0  0
  -48.4230   19.9680  -32.0320 C   0  0  0  0  0  3  0  0  0  0  0  0
  -47.1120   19.5020  -31.8190 C   0  0  0  0  0  3  0  0  0  0  0  0
  -47.2230   16.4280  -33.8850 O   0  0  0  0  0  0  0  0  0  0  0  0
  -46.3140   16.1880  -33.7070 H   0  0  0  0  0  0  0  0  0  0  0  0
  1  2  1  0
  2  3  2  0
  3  9  1  0
  4  6  2  0
  5  4  1  0
  5  1  2  0
  6  3  1  0
  7 12  1  0
  7 10  1  0
  8 10  2  0
  9 11  1  0
  9  7  2  0
 11  8  1  0
 13  5  1  0
 14 15  2  0
 14 16  1  0
 16 13  1  0
 17 16  1  0
 18 22  2  0
 18 21  1  0
 19 23  1  0
 19 14  1  0
 20 21  1  0
 20 24  1  0
 21 19  1  0
 24 25  1  0
 24 23  1  0
 26 25  1  0
 27 39  1  0
 27 18  1  0
 28 31  1  0
 28 27  1  0
 29 28  1  0
 30 29  2  0
 32 33  1  1
 32 29  1  0
 34 35  1  0
 34 32  1  0
 35 32  1  0
 39 37  1  6
 39 38  1  0
 39 36  1  0
 40  1  1  0
 42 41  1  0
 42 40  1  0
 43 48  1  0
 43 52  1  0
 44 43  1  0
 45 46  1  0
 45 44  1  0
 46 47  1  0
 47 48  1  0
 49 51  1  0
 50 53  1  0
 51 53  2  0
 51 42  1  0
 52 54  1  0
 52 49  2  0
 54 50  2  0
 55 46  1  0
 56 55  1  0
 57 56  2  0
 58 59  2  0
 58 57  1  0
 59 60  1  0
 60 61  1  0
 60 55  2  0
 61 62  1  0
 63 61  1  0
 64 57  1  0
 64 69  1  0
 65 64  2  0
 66 65  1  0
 66 67  2  0
 67 68  1  0
 68 69  2  0
 70 71  1  0
 70 65  1  0
M  ISO  4  40 101  42 101  43 100  52 100
M  END
>  <TORSDO>  (115) 
F 15

>  <SCORE>  (115) 
-14.652

>  <name>  (115) 
114

>  <ligand_id>  (115) 
114

>  <original_smiles>  (115) 
[H]Oc1c([H])c([H])c([H])c([H])c1-c1nnc(N([H])[H])c(N2C([H])([H])C([H])([H])N(c3nc([H])nc(C([H])(Oc4c([H])c(-c5sc([H])nc5C([H])([H])[H])c([H])c([H])c4C([H])([H])N([H])C(=O)C4([H])N(C(=O)C([H])(N([H])C(=O)C5(F)C([H])([H])C5([H])[H])C(C([H])([H])[H])(C([H])([H])[H])C([H])([H])[H])C([H])([H])C([H])(O[H])C4([H])[H])C([H])([H])[H])c3[H])C([H])([H])C2([H])[H])c1[H]

>  <smiles>  (115) 
[H]Oc1c([H])c([H])c([H])c([H])c1-c1nnc(N([H])[H])c(N2C([H])([H])C([H])([H])N(c3nc([H])nc(C([H])(Oc4c([H])c(-c5sc([H])nc5C([H])([H])[H])c([H])c([H])c4C([H])([H])N([H])C(=O)C4([H])N(C(=O)C([H])(N([H])C(=O)C5(F)C([H])([H])C5([H])[H])C(C([H])([H])[H])(C([H])([H])[H])C([H])([H])[H])C([H])([H])C([H])(O[H])C4([H])[H])C([H])([H])[H])c3[H])C([H])([H])C2([H])[H])c1[H]

$$$$
115:0:0
     RDKit          3D

 81 89  0  0  1  0  0  0  0  0999 V2000
  -39.4020   16.0650  -22.3670 C   0  0  0  0  0  3  0  0  0  0  0  0
  -37.3560   16.1710  -23.6320 C   0  0  0  0  0  3  0  0  0  0  0  0
  -39.2410   17.4410  -22.1130 C   0  0  0  0  0  3  0  0  0  0  0  0
  -38.4570   15.4220  -23.1830 C   0  0  0  0  0  0  0  0  0  0  0  0
  -37.4300   17.5540  -23.5200 C   0  0  0  0  0  0  0  0  0  0  0  0
  -38.2980   18.2010  -22.7170 N   0  0  0  0  0  0  0  0  0  0  0  0
  -36.8550   18.3330  -24.6100 C   0  0  0  0  0  3  0  0  0  0  0  0
  -38.0120   19.6770  -27.6000 C   0  0  0  0  0  2  0  0  0  0  0  0
  -36.8150   18.8620  -27.0640 C   0  0  0  0  0  2  0  0  0  0  0  0
  -38.4080   17.2020  -26.2080 C   0  0  0  0  0  2  0  0  0  0  0  0
  -39.3130   18.8310  -27.7450 C   0  0  0  0  0  3  0  0  0  0  0  0
  -39.6200   18.0690  -26.4650 C   0  0  0  0  0  3  0  0  0  0  0  0
  -37.2520   18.0830  -25.8920 N   0  0  0  0  0  0  0  0  0  0  0  0
  -35.9420   19.2710  -24.3070 N   0  0  0  0  0  0  0  0  0  0  0  0
  -35.7140   19.4090  -23.3340 H   0  0  0  0  0  0  0  0  0  0  0  0
  -35.5540   19.9000  -24.9880 H   0  0  0  0  0  0  0  0  0  0  0  0
  -40.3930   19.6300  -28.2780 N   0  0  0  0  0  0  0  0  0  0  0  0
  -40.2390   19.8600  -29.7200 C   0  0  0  0  0  2  0  0  0  0  0  0
  -41.5440   19.8090  -30.5320 C   0  0  0  0  0  2  0  0  0  0  0  0
  -42.4080   18.7320  -30.0590 N   0  0  0  0  0  0  0  0  0  0  0  0
  -42.7240   18.6570  -28.6340 C   0  0  0  0  0  2  0  0  0  0  0  0
  -41.7930   19.5590  -27.8040 C   0  0  0  0  0  2  0  0  0  0  0  0
  -43.2810   18.1200  -30.9780 C   0  0  0  0  0  0  0  0  0  0  0  0
  -44.5860   18.5940  -31.2080 C   0  0  0  0  0  3  0  0  0  0  0  0
  -45.4030   17.9160  -32.1530 C   0  0  0  0  0  0  0  0  0  0  0  0
  -44.9030   16.8380  -32.8230 N   0  0  0  0  0  0  0  0  0  0  0  0
  -43.6690   16.3750  -32.6110 N   0  0  0  0  0  0  0  0  0  0  0  0
  -42.8750   16.9820  -31.7080 C   0  0  0  0  0  0  0  0  0  0  0  0
  -41.6230   16.4260  -31.5200 N   0  0  0  0  0  0  0  0  0  0  0  0
  -40.9940   17.0530  -31.0380 H   0  0  0  0  0  0  0  0  0  0  0  0
  -41.2200   15.9470  -32.3130 H   0  0  0  0  0  0  0  0  0  0  0  0
  -46.8190   18.3080  -32.4680 C   0  0  0  0  0  0  0  0  0  0  0  0
  -47.6990   17.5530  -33.3110 C   0  0  0  0  0  0  0  0  0  0  0  0
  -49.0210   17.9790  -33.5490 C   0  0  0  0  0  3  0  0  0  0  0  0
  -49.5160   19.1540  -32.9660 C   0  0  0  0  0  3  0  0  0  0  0  0
  -48.6740   19.9180  -32.1470 C   0  0  0  0  0  3  0  0  0  0  0  0
  -47.3550   19.4970  -31.9030 C   0  0  0  0  0  3  0  0  0  0  0  0
  -47.3310   16.3940  -33.9340 O   0  0  0  0  0  0  0  0  0  0  0  0
  -46.4150   16.1860  -33.7420 H   0  0  0  0  0  0  0  0  0  0  0  0
  -39.8560   18.9520  -25.3830 O   0  0  0  0  0  0  0  0  0  0  0  0
  -40.3390   19.6910  -25.7430 H   0  0  0  0  0  0  0  0  0  0  0  0
  -38.6080   14.1210  -23.6110 O   0  0  0  0  0  0  0  0  0  0  0  0
  -37.4280   13.4300  -23.6240 C   0  0  0  0  0  0  0  0  0  0  0  0
  -36.7270   13.3280  -22.4070 C   0  0  0  0  0  3  0  0  0  0  0  0
  -35.4250   12.8140  -22.3540 C   0  0  0  0  0  0  0  0  0  0  0  0
  -35.5320   12.4400  -24.7730 C   0  0  0  0  0  3  0  0  0  0  0  0
  -36.8420   12.9670  -24.8250 C   0  0  0  0  0  0  0  0  0  0  0  0
  -34.8290   12.3780  -23.5550 C   0  0  0  0  0  3  0  0  0  0  0  0
  -35.1910   12.2210  -19.8630 C   0  0  0  0  0  0  0  0  0  0  0  0
  -33.0540   12.7060  -19.3010 C   0  0  0  0  0  3  0  0  0  0  0  0
  -34.7340   12.7010  -21.0740 C   0  0  0  0  0  0  0  0  0  0  0  0
  -34.2200   12.2250  -18.8640 N   0  0  0  0  0  0  0  0  0  0  0  0
  -33.0670   13.2130  -20.9770 S   0  0  0  0  0  0  0  0  0  0  0  0
  -36.5480   11.6870  -19.5160 C   0  0  0  0  0  1  0  0  0  0  0  0
  -37.6130   13.0570  -26.1420 C   0  0  0  0  0  2  0  0  0  0  0  0
  -36.2530   13.7570  -28.0900 C   0  0  0  0  0  0  0  0  0  0  0  0
  -36.5050   14.9550  -27.9480 O   0  0  0  0  0  0  0  0  0  0  0  0
  -36.7950   12.8050  -27.3250 N   0  0  0  0  0  0  0  0  0  0  0  0
  -36.5720   11.8420  -27.5310 H   0  0  0  0  0  0  0  0  0  0  0  0
  -36.2000   14.4660  -31.1150 C   0  0  0  0  0  0  0  0  0  0  0  0
  -35.2180   13.2960  -29.1300 C   0  0  0  0  0  3  0  0  0  0  0  0
  -33.7390   14.5000  -30.6150 C   0  0  0  0  0  2  0  0  0  0  0  0
  -35.1380   14.1560  -30.3260 N   0  0  0  0  0  0  0  0  0  0  0  0
  -37.3250   14.0030  -30.9010 O   0  0  0  0  0  0  0  0  0  0  0  0
  -33.8180   13.3450  -28.4970 C   0  0  0  0  0  2  0  0  0  0  0  0
  -32.8890   13.6800  -29.6450 C   0  0  0  0  0  3  0  0  0  0  0  0
  -32.4680   12.4990  -30.3120 O   0  0  0  0  0  0  0  0  0  0  0  0
  -33.2370   12.0630  -30.6640 H   0  0  0  0  0  0  0  0  0  0  0  0
  -36.0140   15.3810  -32.3540 C   0  0  0  0  0  3  0  0  0  0  0  0
  -35.8620   17.4850  -30.8520 C   0  0  0  0  0  1  0  0  0  0  0  0
  -35.9940   17.7210  -33.3190 C   0  0  0  0  0  1  0  0  0  0  0  0
  -38.0150   17.0020  -32.0150 C   0  0  0  0  0  1  0  0  0  0  0  0
  -36.4820   16.8660  -32.1290 C   0  0  1  0  0  0  0  0  0  0  0  0
  -36.7640   14.7660  -33.4640 N   0  0  0  0  0  0  0  0  0  0  0  0
  -36.2510   14.2370  -34.5850 C   0  0  0  0  0  0  0  0  0  0  0  0
  -35.0430   14.2780  -34.8360 O   0  0  0  0  0  0  0  0  0  0  0  0
  -37.7560   14.6350  -33.3210 H   0  0  0  0  0  0  0  0  0  0  0  0
  -37.2410   13.5830  -35.5130 C   0  0  1  0  0  0  0  0  0  0  0  0
  -38.5010   13.4190  -34.9610 F   0  0  0  0  0  0  0  0  0  0  0  0
  -37.1760   13.8730  -36.9960 C   0  0  0  0  0  2  0  0  0  0  0  0
  -36.7780   12.5100  -36.4770 C   0  0  0  0  0  2  0  0  0  0  0  0
  1  3  1  0
  2  5  2  0
  2  4  1  0
  4  1  2  0
  5  6  1  0
  6  3  2  0
  7 14  1  0
  7  5  1  0
  8  9  1  0
  9 13  1  0
 10 13  1  0
 11  8  1  0
 11 12  1  0
 12 10  1  0
 12 40  1  0
 13  7  1  0
 14 15  1  0
 16 14  1  0
 17 18  1  0
 17 22  1  0
 17 11  1  0
 19 20  1  0
 19 18  1  0
 20 21  1  0
 21 22  1  0
 23 20  1  0
 24 23  1  0
 25 24  2  0
 26 27  2  0
 26 25  1  0
 27 28  1  0
 28 29  1  0
 28 23  2  0
 29 30  1  0
 31 29  1  0
 32 25  1  0
 32 37  1  0
 33 32  2  0
 34 33  1  0
 34 35  2  0
 35 36  1  0
 36 37  2  0
 38 39  1  0
 38 33  1  0
 41 40  1  0
 42  4  1  0
 43 42  1  0
 43 44  1  0
 44 45  2  0
 45 51  1  0
 46 48  2  0
 47 46  1  0
 47 43  2  0
 48 45  1  0
 49 54  1  0
 49 52  1  0
 50 52  2  0
 51 53  1  0
 51 49  2  0
 53 50  1  0
 55 47  1  0
 56 57  2  0
 56 58  1  0
 58 55  1  0
 59 58  1  0
 60 64  2  0
 60 63  1  0
 61 65  1  0
 61 56  1  0
 62 63  1  0
 62 66  1  0
 63 61  1  0
 66 67  1  0
 66 65  1  0
 68 67  1  0
 69 73  1  0
 69 60  1  0
 73 71  1  6
 73 72  1  0
 73 70  1  0
 74 77  1  0
 74 69  1  0
 75 74  1  0
 76 75  2  0
 78 79  1  1
 78 75  1  0
 80 81  1  0
 80 78  1  0
 81 78  1  0
M  ISO  4   4 101  11 100  17 100  42 101
M  END
>  <TORSDO>  (116) 
F 17

>  <SCORE>  (116) 
-14.651

>  <name>  (116) 
115

>  <ligand_id>  (116) 
115

>  <original_smiles>  (116) 
[H]Oc1c([H])c([H])c([H])c([H])c1-c1nnc(N([H])[H])c(N2C([H])([H])C([H])([H])N(C3([H])C([H])([H])C([H])([H])N(C(c4nc([H])c([H])c(Oc5c([H])c(-c6sc([H])nc6C([H])([H])[H])c([H])c([H])c5C([H])([H])N([H])C(=O)C5([H])N(C(=O)C([H])(N([H])C(=O)C6(F)C([H])([H])C6([H])[H])C(C([H])([H])[H])(C([H])([H])[H])C([H])([H])[H])C([H])([H])C([H])(O[H])C5([H])[H])c4[H])=[N+]([H])[H])C([H])([H])C3([H])O[H])C([H])([H])C2([H])[H])c1[H]

>  <smiles>  (116) 
[H]Oc1c([H])c([H])c([H])c([H])c1-c1nnc(N([H])[H])c(N2C([H])([H])C([H])([H])N(C3([H])C([H])([H])C([H])([H])N(C(c4nc([H])c([H])c(Oc5c([H])c(-c6sc([H])nc6C([H])([H])[H])c([H])c([H])c5C([H])([H])N([H])C(=O)C5([H])N(C(=O)C([H])(N([H])C(=O)C6(F)C([H])([H])C6([H])[H])C(C([H])([H])[H])(C([H])([H])[H])C([H])([H])[H])C([H])([H])C([H])(O[H])C5([H])[H])c4[H])=[N+]([H])[H])C([H])([H])C3([H])O[H])C([H])([H])C2([H])[H])c1[H]

$$$$
116:0:0
     RDKit          3D

 75 82  0  0  1  0  0  0  0  0999 V2000
  -37.4560   13.5880  -23.7560 C   0  0  0  0  0  0  0  0  0  0  0  0
  -36.7770   13.5230  -22.5100 C   0  0  0  0  0  3  0  0  0  0  0  0
  -35.5020   12.9140  -22.3780 C   0  0  0  0  0  0  0  0  0  0  0  0
  -35.5770   12.3870  -24.7610 C   0  0  0  0  0  3  0  0  0  0  0  0
  -36.8610   12.9660  -24.8870 C   0  0  0  0  0  0  0  0  0  0  0  0
  -34.9020   12.3720  -23.5320 C   0  0  0  0  0  3  0  0  0  0  0  0
  -35.2670   12.3540  -19.8630 C   0  0  0  0  0  0  0  0  0  0  0  0
  -33.1060   12.7630  -19.3190 C   0  0  0  0  0  3  0  0  0  0  0  0
  -34.8100   12.8020  -21.0870 C   0  0  0  0  0  0  0  0  0  0  0  0
  -34.2860   12.3410  -18.8660 N   0  0  0  0  0  0  0  0  0  0  0  0
  -33.1120   13.2280  -21.0090 S   0  0  0  0  0  0  0  0  0  0  0  0
  -36.6330   11.8660  -19.4940 C   0  0  0  0  0  1  0  0  0  0  0  0
  -37.6030   12.8400  -26.2180 C   0  0  0  0  0  2  0  0  0  0  0  0
  -36.2130   13.6630  -28.0900 C   0  0  0  0  0  0  0  0  0  0  0  0
  -36.5060   14.8510  -27.9240 O   0  0  0  0  0  0  0  0  0  0  0  0
  -36.7310   12.6700  -27.3660 N   0  0  0  0  0  0  0  0  0  0  0  0
  -36.4490   11.7230  -27.5800 H   0  0  0  0  0  0  0  0  0  0  0  0
  -36.1360   14.4030  -31.1090 C   0  0  0  0  0  0  0  0  0  0  0  0
  -35.1540   13.2440  -29.1200 C   0  0  0  0  0  3  0  0  0  0  0  0
  -33.6820   14.4780  -30.5800 C   0  0  0  0  0  2  0  0  0  0  0  0
  -35.0780   14.1120  -30.3090 N   0  0  0  0  0  0  0  0  0  0  0  0
  -37.2560   13.9210  -30.9060 O   0  0  0  0  0  0  0  0  0  0  0  0
  -33.7640   13.3100  -28.4690 C   0  0  0  0  0  2  0  0  0  0  0  0
  -32.8300   13.6660  -29.6050 C   0  0  0  0  0  3  0  0  0  0  0  0
  -32.3880   12.4920  -30.2670 O   0  0  0  0  0  0  0  0  0  0  0  0
  -33.1530   12.0250  -30.5890 H   0  0  0  0  0  0  0  0  0  0  0  0
  -35.9520   15.3240  -32.3460 C   0  0  0  0  0  3  0  0  0  0  0  0
  -36.7150   14.7250  -33.4530 N   0  0  0  0  0  0  0  0  0  0  0  0
  -36.2100   14.1790  -34.5680 C   0  0  0  0  0  0  0  0  0  0  0  0
  -35.0030   14.1960  -34.8180 O   0  0  0  0  0  0  0  0  0  0  0  0
  -37.7090   14.6100  -33.3080 H   0  0  0  0  0  0  0  0  0  0  0  0
  -37.2120   13.5450  -35.4940 C   0  0  1  0  0  0  0  0  0  0  0  0
  -38.4800   13.4160  -34.9470 F   0  0  0  0  0  0  0  0  0  0  0  0
  -37.1330   13.8270  -36.9770 C   0  0  0  0  0  2  0  0  0  0  0  0
  -36.7710   12.4570  -36.4500 C   0  0  0  0  0  2  0  0  0  0  0  0
  -35.7010   17.4260  -30.8680 C   0  0  0  0  0  1  0  0  0  0  0  0
  -35.9930   17.6630  -33.3210 C   0  0  0  0  0  1  0  0  0  0  0  0
  -37.9290   16.9480  -31.9020 C   0  0  0  0  0  1  0  0  0  0  0  0
  -36.4030   16.8100  -32.1020 C   0  0  1  0  0  0  0  0  0  0  0  0
  -38.7020   14.2070  -23.8100 O   0  0  0  0  0  0  0  0  0  0  0  0
  -39.3700   17.2670  -26.7160 C   0  0  0  0  0  0  0  0  0  0  0  0
  -38.9590   15.2760  -24.6740 C   0  0  0  0  0  0  0  0  0  0  0  0
  -38.4790   17.4990  -25.6280 C   0  0  0  0  0  0  0  0  0  0  0  0
  -40.1340   16.0710  -26.7020 C   0  0  0  0  0  0  0  0  0  0  0  0
  -38.2670   16.5120  -24.6270 C   0  0  0  0  0  0  0  0  0  0  0  0
  -39.9650   15.1240  -25.6610 C   0  0  0  0  0  0  0  0  0  0  0  0
  -37.5790   18.9830  -25.5310 Cl  0  0  0  0  0  0  0  0  0  0  0  0
  -41.1840   15.6590  -28.0220 Cl  0  0  0  0  0  0  0  0  0  0  0  0
  -37.1400   16.8350  -23.3500 Cl  0  0  0  0  0  0  0  0  0  0  0  0
  -40.9090   13.6700  -25.6640 Cl  0  0  0  0  0  0  0  0  0  0  0  0
  -40.2360   18.9430  -28.4370 N   0  0  0  0  0  0  0  0  0  0  0  0
  -40.0640   19.6010  -29.7530 C   0  0  0  0  0  2  0  0  0  0  0  0
  -41.2810   19.4480  -30.6960 C   0  0  0  0  0  2  0  0  0  0  0  0
  -42.3150   18.5870  -30.1310 N   0  0  0  0  0  0  0  0  0  0  0  0
  -42.7330   18.8750  -28.7620 C   0  0  0  0  0  2  0  0  0  0  0  0
  -41.5420   19.2800  -27.8400 C   0  0  0  0  0  2  0  0  0  0  0  0
  -39.2490   18.1200  -27.9660 C   0  0  0  0  0  0  0  0  0  0  0  0
  -38.1770   18.0100  -28.5700 O   0  0  0  0  0  0  0  0  0  0  0  0
  -43.2340   18.0120  -31.0410 C   0  0  0  0  0  0  0  0  0  0  0  0
  -44.5320   18.5250  -31.2630 C   0  0  0  0  0  3  0  0  0  0  0  0
  -45.3910   17.8620  -32.1840 C   0  0  0  0  0  0  0  0  0  0  0  0
  -44.9460   16.7530  -32.8390 N   0  0  0  0  0  0  0  0  0  0  0  0
  -43.7250   16.2520  -32.6400 N   0  0  0  0  0  0  0  0  0  0  0  0
  -42.8880   16.8550  -31.7730 C   0  0  0  0  0  0  0  0  0  0  0  0
  -41.6570   16.2480  -31.5910 N   0  0  0  0  0  0  0  0  0  0  0  0
  -41.2140   16.5640  -30.7390 H   0  0  0  0  0  0  0  0  0  0  0  0
  -41.6430   15.2490  -31.7310 H   0  0  0  0  0  0  0  0  0  0  0  0
  -46.7980   18.3020  -32.4870 C   0  0  0  0  0  0  0  0  0  0  0  0
  -47.7070   17.5950  -33.3450 C   0  0  0  0  0  0  0  0  0  0  0  0
  -49.0190   18.0620  -33.5660 C   0  0  0  0  0  3  0  0  0  0  0  0
  -49.4770   19.2360  -32.9520 C   0  0  0  0  0  3  0  0  0  0  0  0
  -48.6110   19.9530  -32.1160 C   0  0  0  0  0  3  0  0  0  0  0  0
  -47.3000   19.4920  -31.8950 C   0  0  0  0  0  3  0  0  0  0  0  0
  -47.3790   16.4390  -33.9980 O   0  0  0  0  0  0  0  0  0  0  0  0
  -46.4720   16.1930  -33.8160 H   0  0  0  0  0  0  0  0  0  0  0  0
  1  2  1  0
  2  3  2  0
  3  9  1  0
  4  6  2  0
  5  4  1  0
  5  1  2  0
  6  3  1  0
  7 12  1  0
  7 10  1  0
  8 10  2  0
  9 11  1  0
  9  7  2  0
 11  8  1  0
 13  5  1  0
 14 15  2  0
 14 16  1  0
 16 13  1  0
 17 16  1  0
 18 22  2  0
 18 21  1  0
 19 23  1  0
 19 14  1  0
 20 21  1  0
 20 24  1  0
 21 19  1  0
 24 25  1  0
 24 23  1  0
 26 25  1  0
 27 39  1  0
 27 18  1  0
 28 31  1  0
 28 27  1  0
 29 28  1  0
 30 29  2  0
 32 33  1  1
 32 29  1  0
 34 35  1  0
 34 32  1  0
 35 32  1  0
 39 37  1  6
 39 38  1  0
 39 36  1  0
 40  1  1  0
 41 44  2  0
 41 43  1  0
 42 45  1  0
 42 40  1  0
 43 47  1  0
 43 45  2  0
 44 46  1  0
 45 49  1  0
 46 42  2  0
 48 44  1  0
 50 46  1  0
 51 57  1  0
 51 56  1  0
 52 51  1  0
 53 54  1  0
 53 52  1  0
 54 55  1  0
 55 56  1  0
 57 41  1  0
 58 57  2  0
 59 54  1  0
 60 59  1  0
 61 60  2  0
 62 63  2  0
 62 61  1  0
 63 64  1  0
 64 65  1  0
 64 59  2  0
 65 66  1  0
 67 65  1  0
 68 61  1  0
 68 73  1  0
 69 68  2  0
 70 69  1  0
 70 71  2  0
 71 72  1  0
 72 73  2  0
 74 75  1  0
 74 69  1  0
M  ISO  4  40 101  42 101  51 100  57 100
M  END
>  <TORSDO>  (117) 
F 15

>  <SCORE>  (117) 
-15.173

>  <name>  (117) 
116

>  <ligand_id>  (117) 
116

>  <original_smiles>  (117) 
[H]Oc1c([H])c([H])c([H])c([H])c1-c1nnc(N([H])[H])c(N2C([H])([H])C([H])([H])N(C(=O)c3c(Cl)c(Cl)c(Oc4c([H])c(-c5sc([H])nc5C([H])([H])[H])c([H])c([H])c4C([H])([H])N([H])C(=O)C4([H])N(C(=O)C([H])(N([H])C(=O)C5(F)C([H])([H])C5([H])[H])C(C([H])([H])[H])(C([H])([H])[H])C([H])([H])[H])C([H])([H])C([H])(O[H])C4([H])[H])c(Cl)c3Cl)C([H])([H])C2([H])[H])c1[H]

>  <smiles>  (117) 
[H]Oc1c([H])c([H])c([H])c([H])c1-c1nnc(N([H])[H])c(N2C([H])([H])C([H])([H])N(C(=O)c3c(Cl)c(Cl)c(Oc4c([H])c(-c5sc([H])nc5C([H])([H])[H])c([H])c([H])c4C([H])([H])N([H])C(=O)C4([H])N(C(=O)C([H])(N([H])C(=O)C5(F)C([H])([H])C5([H])[H])C(C([H])([H])[H])(C([H])([H])[H])C([H])([H])[H])C([H])([H])C([H])(O[H])C4([H])[H])c(Cl)c3Cl)C([H])([H])C2([H])[H])c1[H]

$$$$
117:0:0
     RDKit          3D

 77 85  0  0  1  0  0  0  0  0999 V2000
  -37.4490   13.5650  -23.7330 C   0  0  0  0  0  0  0  0  0  0  0  0
  -36.7420   13.4530  -22.5070 C   0  0  0  0  0  3  0  0  0  0  0  0
  -35.4730   12.8350  -22.4090 C   0  0  0  0  0  0  0  0  0  0  0  0
  -35.5850   12.3960  -24.8070 C   0  0  0  0  0  3  0  0  0  0  0  0
  -36.8640   13.0050  -24.9010 C   0  0  0  0  0  0  0  0  0  0  0  0
  -34.8970   12.3200  -23.5850 C   0  0  0  0  0  3  0  0  0  0  0  0
  -35.2410   12.2170  -19.9080 C   0  0  0  0  0  0  0  0  0  0  0  0
  -33.0750   12.5910  -19.3590 C   0  0  0  0  0  3  0  0  0  0  0  0
  -34.7770   12.6810  -21.1240 C   0  0  0  0  0  0  0  0  0  0  0  0
  -34.2590   12.1720  -18.9130 N   0  0  0  0  0  0  0  0  0  0  0  0
  -33.0770   13.0900  -21.0390 S   0  0  0  0  0  0  0  0  0  0  0  0
  -36.6180   11.7500  -19.5520 C   0  0  0  0  0  1  0  0  0  0  0  0
  -37.6060   12.9840  -26.2310 C   0  0  0  0  0  2  0  0  0  0  0  0
  -36.2150   13.7050  -28.1230 C   0  0  0  0  0  0  0  0  0  0  0  0
  -36.4530   14.9050  -27.9590 O   0  0  0  0  0  0  0  0  0  0  0  0
  -36.7650   12.7360  -27.3870 N   0  0  0  0  0  0  0  0  0  0  0  0
  -36.5360   11.7750  -27.5990 H   0  0  0  0  0  0  0  0  0  0  0  0
  -36.1780   14.4440  -31.1320 C   0  0  0  0  0  0  0  0  0  0  0  0
  -35.1880   13.2540  -29.1640 C   0  0  0  0  0  3  0  0  0  0  0  0
  -33.7170   14.4820  -30.6300 C   0  0  0  0  0  2  0  0  0  0  0  0
  -35.1130   14.1290  -30.3470 N   0  0  0  0  0  0  0  0  0  0  0  0
  -37.3040   13.9810  -30.9170 O   0  0  0  0  0  0  0  0  0  0  0  0
  -33.7890   13.2900  -28.5290 C   0  0  0  0  0  2  0  0  0  0  0  0
  -32.8640   13.6530  -29.6700 C   0  0  0  0  0  3  0  0  0  0  0  0
  -32.4380   12.4810  -30.3470 O   0  0  0  0  0  0  0  0  0  0  0  0
  -33.2070   12.0220  -30.6690 H   0  0  0  0  0  0  0  0  0  0  0  0
  -35.9920   15.3690  -32.3650 C   0  0  0  0  0  3  0  0  0  0  0  0
  -35.7920   17.4720  -30.8720 C   0  0  0  0  0  1  0  0  0  0  0  0
  -36.0290   17.7120  -33.3320 C   0  0  0  0  0  1  0  0  0  0  0  0
  -37.9880   16.9800  -31.9570 C   0  0  0  0  0  1  0  0  0  0  0  0
  -36.4570   16.8520  -32.1250 C   0  0  1  0  0  0  0  0  0  0  0  0
  -36.7430   14.7660  -33.4770 N   0  0  0  0  0  0  0  0  0  0  0  0
  -36.2280   14.2310  -34.5930 C   0  0  0  0  0  0  0  0  0  0  0  0
  -35.0190   14.2600  -34.8360 O   0  0  0  0  0  0  0  0  0  0  0  0
  -37.7370   14.6400  -33.3360 H   0  0  0  0  0  0  0  0  0  0  0  0
  -37.2190   13.5880  -35.5270 C   0  0  1  0  0  0  0  0  0  0  0  0
  -38.4870   13.4440  -34.9860 F   0  0  0  0  0  0  0  0  0  0  0  0
  -37.1360   13.8680  -37.0090 C   0  0  0  0  0  2  0  0  0  0  0  0
  -36.7610   12.5030  -36.4780 C   0  0  0  0  0  2  0  0  0  0  0  0
  -38.7300   14.0910  -23.6170 O   0  0  0  0  0  0  0  0  0  0  0  0
  -39.4690   14.9070  -24.5510 C   0  0  0  0  0  2  0  0  0  0  0  0
  -38.4330   18.5190  -23.7230 C   0  0  0  0  0  3  0  0  0  0  0  0
  -38.8670   18.4450  -26.1340 C   0  0  0  0  0  0  0  0  0  0  0  0
  -39.0500   16.3820  -24.7330 C   0  0  0  0  0  0  0  0  0  0  0  0
  -38.4720   19.1740  -24.9710 C   0  0  0  0  0  0  0  0  0  0  0  0
  -38.7290   17.1570  -23.5930 C   0  0  0  0  0  0  0  0  0  0  0  0
  -39.1290   17.0410  -26.0010 C   0  0  0  0  0  0  0  0  0  0  0  0
  -38.4490   20.6530  -27.4500 C   0  0  0  0  0  2  0  0  0  0  0  0
  -37.4720   20.9090  -26.3160 C   0  0  0  0  0  2  0  0  0  0  0  0
  -38.8850   19.1680  -27.5200 C   0  0  0  0  0  3  0  0  0  0  0  0
  -37.7920   21.3210  -23.8640 C   0  0  0  0  0  1  0  0  0  0  0  0
  -38.0880   20.5320  -25.0580 N   0  0  0  0  0  0  0  0  0  0  0  0
  -38.7180   16.5010  -21.9900 Cl  0  0  0  0  0  0  0  0  0  0  0  0
  -39.5550   16.1100  -27.4020 Cl  0  0  0  0  0  0  0  0  0  0  0  0
  -40.0890   19.0250  -28.3750 N   0  0  0  0  0  0  0  0  0  0  0  0
  -39.8490   19.4260  -29.7790 C   0  0  0  0  0  2  0  0  0  0  0  0
  -41.1200   19.4730  -30.6680 C   0  0  0  0  0  2  0  0  0  0  0  0
  -42.1870   18.6440  -30.1210 N   0  0  0  0  0  0  0  0  0  0  0  0
  -42.5220   18.8350  -28.7070 C   0  0  0  0  0  2  0  0  0  0  0  0
  -41.3810   19.5430  -27.9090 C   0  0  0  0  0  2  0  0  0  0  0  0
  -43.0900   18.0200  -31.0080 C   0  0  0  0  0  0  0  0  0  0  0  0
  -44.3920   18.5120  -31.2290 C   0  0  0  0  0  3  0  0  0  0  0  0
  -45.2470   17.8300  -32.1370 C   0  0  0  0  0  0  0  0  0  0  0  0
  -44.7950   16.7120  -32.7750 N   0  0  0  0  0  0  0  0  0  0  0  0
  -43.5690   16.2220  -32.5680 N   0  0  0  0  0  0  0  0  0  0  0  0
  -42.7320   16.8490  -31.7150 C   0  0  0  0  0  0  0  0  0  0  0  0
  -41.4940   16.2580  -31.5270 N   0  0  0  0  0  0  0  0  0  0  0  0
  -41.0310   16.5950  -30.6910 H   0  0  0  0  0  0  0  0  0  0  0  0
  -41.4490   15.2580  -31.6610 H   0  0  0  0  0  0  0  0  0  0  0  0
  -46.6560   18.2610  -32.4430 C   0  0  0  0  0  0  0  0  0  0  0  0
  -47.5600   17.5410  -33.2910 C   0  0  0  0  0  0  0  0  0  0  0  0
  -48.8760   17.9970  -33.5130 C   0  0  0  0  0  3  0  0  0  0  0  0
  -49.3370   19.1760  -32.9090 C   0  0  0  0  0  3  0  0  0  0  0  0
  -48.4740   19.9070  -32.0840 C   0  0  0  0  0  3  0  0  0  0  0  0
  -47.1610   19.4550  -31.8610 C   0  0  0  0  0  3  0  0  0  0  0  0
  -47.2230   16.3830  -33.9330 O   0  0  0  0  0  0  0  0  0  0  0  0
  -46.3120   16.1510  -33.7470 H   0  0  0  0  0  0  0  0  0  0  0  0
  1 40  1  0
  1  2  1  0
  2  3  2  0
  3  9  1  0
  4  6  2  0
  5  4  1  0
  5  1  2  0
  6  3  1  0
  7 12  1  0
  7 10  1  0
  8 10  2  0
  9 11  1  0
  9  7  2  0
 11  8  1  0
 13  5  1  0
 14 15  2  0
 14 16  1  0
 16 13  1  0
 17 16  1  0
 18 22  2  0
 18 21  1  0
 19 23  1  0
 19 14  1  0
 20 21  1  0
 20 24  1  0
 21 19  1  0
 24 25  1  0
 24 23  1  0
 26 25  1  0
 27 31  1  0
 27 18  1  0
 31 29  1  6
 31 30  1  0
 31 28  1  0
 32 35  1  0
 32 27  1  0
 33 32  1  0
 34 33  2  0
 36 37  1  1
 36 33  1  0
 38 39  1  0
 38 36  1  0
 39 36  1  0
 41 40  1  0
 42 46  1  0
 43 47  2  0
 43 45  1  0
 44 41  1  0
 44 46  2  0
 45 42  2  0
 46 53  1  0
 47 44  1  0
 48 49  1  0
 49 52  1  0
 50 48  1  0
 50 43  1  0
 52 45  1  0
 52 51  1  0
 54 47  1  0
 55 56  1  0
 55 60  1  0
 55 50  1  0
 57 58  1  0
 57 56  1  0
 58 59  1  0
 59 60  1  0
 61 58  1  0
 62 61  1  0
 63 62  2  0
 64 65  2  0
 64 63  1  0
 65 66  1  0
 66 67  1  0
 66 61  2  0
 67 68  1  0
 69 67  1  0
 70 63  1  0
 70 75  1  0
 71 70  2  0
 72 71  1  0
 72 73  2  0
 73 74  1  0
 74 75  2  0
 76 77  1  0
 76 71  1  0
M  ISO  4  40 101  41 101  50 100  55 100
M  END
>  <TORSDO>  (118) 
F 16

>  <SCORE>  (118) 
-14.533

>  <name>  (118) 
117

>  <ligand_id>  (118) 
117

>  <original_smiles>  (118) 
[H]Oc1c([H])c([H])c([H])c([H])c1-c1nnc(N([H])[H])c(N2C([H])([H])C([H])([H])N(C3([H])c4c(Cl)c(C([H])([H])Oc5c([H])c(-c6sc([H])nc6C([H])([H])[H])c([H])c([H])c5C([H])([H])N([H])C(=O)C5([H])N(C(=O)C([H])(N([H])C(=O)C6(F)C([H])([H])C6([H])[H])C(C([H])([H])[H])(C([H])([H])[H])C([H])([H])[H])C([H])([H])C([H])(O[H])C5([H])[H])c(Cl)c([H])c4N(C([H])([H])[H])C([H])([H])C3([H])[H])C([H])([H])C2([H])[H])c1[H]

>  <smiles>  (118) 
[H]Oc1c([H])c([H])c([H])c([H])c1-c1nnc(N([H])[H])c(N2C([H])([H])C([H])([H])N(C3([H])c4c(Cl)c(C([H])([H])Oc5c([H])c(-c6sc([H])nc6C([H])([H])[H])c([H])c([H])c5C([H])([H])N([H])C(=O)C5([H])N(C(=O)C([H])(N([H])C(=O)C6(F)C([H])([H])C6([H])[H])C(C([H])([H])[H])(C([H])([H])[H])C([H])([H])[H])C([H])([H])C([H])(O[H])C5([H])[H])c(Cl)c([H])c4N(C([H])([H])[H])C([H])([H])C3([H])[H])C([H])([H])C2([H])[H])c1[H]

$$$$
118:0:0
     RDKit          3D

 76 84  0  0  1  0  0  0  0  0999 V2000
  -37.2710   13.4450  -23.7790 C   0  0  0  0  0  0  0  0  0  0  0  0
  -36.5830   13.5000  -22.5600 C   0  0  0  0  0  3  0  0  0  0  0  0
  -35.3280   12.8980  -22.3960 C   0  0  0  0  0  0  0  0  0  0  0  0
  -35.3620   12.2690  -24.7460 C   0  0  0  0  0  3  0  0  0  0  0  0
  -36.6640   12.7820  -24.9060 C   0  0  0  0  0  0  0  0  0  0  0  0
  -34.7090   12.3110  -23.5100 C   0  0  0  0  0  3  0  0  0  0  0  0
  -35.2320   12.4650  -19.8630 C   0  0  0  0  0  0  0  0  0  0  0  0
  -33.0810   12.8390  -19.2590 C   0  0  0  0  0  3  0  0  0  0  0  0
  -34.6990   12.8320  -21.0830 C   0  0  0  0  0  0  0  0  0  0  0  0
  -34.2890   12.4690  -18.8320 N   0  0  0  0  0  0  0  0  0  0  0  0
  -33.0040   13.2290  -20.9630 S   0  0  0  0  0  0  0  0  0  0  0  0
  -36.6340   12.0440  -19.5390 C   0  0  0  0  0  1  0  0  0  0  0  0
  -37.3260   12.3770  -26.2330 C   0  0  0  0  0  2  0  0  0  0  0  0
  -36.0750   13.5700  -28.1250 C   0  0  0  0  0  0  0  0  0  0  0  0
  -36.3960   14.7420  -27.9160 O   0  0  0  0  0  0  0  0  0  0  0  0
  -36.5210   12.5130  -27.4390 N   0  0  0  0  0  0  0  0  0  0  0  0
  -36.1650   11.6300  -27.7780 H   0  0  0  0  0  0  0  0  0  0  0  0
  -35.9980   14.3580  -31.1590 C   0  0  0  0  0  0  0  0  0  0  0  0
  -35.0090   13.2040  -29.1720 C   0  0  0  0  0  3  0  0  0  0  0  0
  -33.5460   14.4560  -30.6240 C   0  0  0  0  0  2  0  0  0  0  0  0
  -34.9400   14.0790  -30.3540 N   0  0  0  0  0  0  0  0  0  0  0  0
  -37.1120   13.8600  -30.9590 O   0  0  0  0  0  0  0  0  0  0  0  0
  -33.6200   13.2750  -28.5190 C   0  0  0  0  0  2  0  0  0  0  0  0
  -32.6870   13.6460  -29.6530 C   0  0  0  0  0  3  0  0  0  0  0  0
  -32.2260   12.4830  -30.3220 O   0  0  0  0  0  0  0  0  0  0  0  0
  -32.9810   12.0080  -30.6550 H   0  0  0  0  0  0  0  0  0  0  0  0
  -35.8180   15.2840  -32.3910 C   0  0  0  0  0  3  0  0  0  0  0  0
  -36.5970   14.7030  -33.4960 N   0  0  0  0  0  0  0  0  0  0  0  0
  -36.1160   14.2380  -34.6580 C   0  0  0  0  0  0  0  0  0  0  0  0
  -34.9220   14.3260  -34.9540 O   0  0  0  0  0  0  0  0  0  0  0  0
  -37.5790   14.5340  -33.3210 H   0  0  0  0  0  0  0  0  0  0  0  0
  -37.1280   13.6000  -35.5740 C   0  0  1  0  0  0  0  0  0  0  0  0
  -38.3550   13.3650  -34.9760 F   0  0  0  0  0  0  0  0  0  0  0  0
  -37.1380   13.9700  -37.0390 C   0  0  0  0  0  2  0  0  0  0  0  0
  -36.6730   12.5960  -36.6120 C   0  0  0  0  0  2  0  0  0  0  0  0
  -35.6620   17.3180  -30.8100 C   0  0  0  0  0  1  0  0  0  0  0  0
  -35.7130   17.6660  -33.2670 C   0  0  0  0  0  1  0  0  0  0  0  0
  -37.7860   16.9390  -32.0740 C   0  0  0  0  0  1  0  0  0  0  0  0
  -36.2540   16.7720  -32.1310 C   0  0  1  0  0  0  0  0  0  0  0  0
  -38.5270   13.9820  -23.6600 O   0  0  0  0  0  0  0  0  0  0  0  0
  -38.7960   15.0040  -25.7580 C   0  0  0  0  0  2  0  0  0  0  0  0
  -39.2730   14.1840  -24.7400 C   0  0  0  0  0  0  0  0  0  0  0  0
  -40.5230   14.2480  -26.9970 C   0  0  0  0  0  0  0  0  0  0  0  0
  -40.0650   16.7750  -28.8850 C   0  0  0  0  0  2  0  0  0  0  0  0
  -40.9430   15.4820  -29.0180 C   0  0  0  0  0  2  0  0  0  0  0  0
  -42.0960   15.9740  -26.8690 C   0  0  0  0  0  2  0  0  0  0  0  0
  -41.1920   17.2190  -26.6040 C   0  0  0  0  0  3  0  0  0  0  0  0
  -40.8310   17.7690  -28.0140 C   0  0  0  0  0  3  0  0  0  0  0  0
  -41.8750   18.0950  -25.5410 C   0  0  0  0  0  1  0  0  0  0  0  0
  -39.3530   14.8660  -26.9560 N   0  0  0  0  0  0  0  0  0  0  0  0
  -40.3760   13.4090  -24.8690 N   0  0  0  0  0  0  0  0  0  0  0  0
  -41.0540   13.4920  -26.0220 N   0  0  0  0  0  2  0  0  0  0  0  0
  -41.4270   14.9740  -27.7240 N   0  0  0  0  0  0  0  0  0  0  0  0
  -40.5330   19.2170  -28.1980 N   0  0  0  0  0  0  0  0  0  0  0  0
  -40.1240   19.6860  -29.5550 C   0  0  0  0  0  2  0  0  0  0  0  0
  -41.2530   19.6730  -30.6430 C   0  0  0  0  0  2  0  0  0  0  0  0
  -42.4000   18.8920  -30.2020 N   0  0  0  0  0  0  0  0  0  0  0  0
  -42.9520   19.3320  -28.9130 C   0  0  0  0  0  2  0  0  0  0  0  0
  -41.8250   19.8750  -27.9700 C   0  0  0  0  0  2  0  0  0  0  0  0
  -43.1980   18.1710  -31.1140 C   0  0  0  0  0  0  0  0  0  0  0  0
  -44.5470   18.5190  -31.2860 C   0  0  0  0  0  3  0  0  0  0  0  0
  -45.3300   17.8180  -32.2350 C   0  0  0  0  0  0  0  0  0  0  0  0
  -44.7750   16.8010  -32.9460 N   0  0  0  0  0  0  0  0  0  0  0  0
  -43.5050   16.4320  -32.7810 N   0  0  0  0  0  0  0  0  0  0  0  0
  -42.7280   17.0840  -31.8980 C   0  0  0  0  0  0  0  0  0  0  0  0
  -41.4360   16.6080  -31.8270 N   0  0  0  0  0  0  0  0  0  0  0  0
  -40.7880   17.2320  -31.3750 H   0  0  0  0  0  0  0  0  0  0  0  0
  -41.0850   16.1380  -32.6470 H   0  0  0  0  0  0  0  0  0  0  0  0
  -46.7650   18.1400  -32.5040 C   0  0  0  0  0  0  0  0  0  0  0  0
  -47.6230   17.3600  -33.3440 C   0  0  0  0  0  0  0  0  0  0  0  0
  -48.9720   17.7180  -33.5400 C   0  0  0  0  0  3  0  0  0  0  0  0
  -49.5120   18.8510  -32.9170 C   0  0  0  0  0  3  0  0  0  0  0  0
  -48.6960   19.6390  -32.0960 C   0  0  0  0  0  3  0  0  0  0  0  0
  -47.3500   19.2870  -31.9020 C   0  0  0  0  0  3  0  0  0  0  0  0
  -47.2060   16.2350  -34.0020 O   0  0  0  0  0  0  0  0  0  0  0  0
  -46.2770   16.0740  -33.8370 H   0  0  0  0  0  0  0  0  0  0  0  0
  1 40  1  0
  1  2  1  0
  2  3  2  0
  3  9  1  0
  4  6  2  0
  5  4  1  0
  5  1  2  0
  6  3  1  0
  7 12  1  0
  7 10  1  0
  8 10  2  0
  9 11  1  0
  9  7  2  0
 11  8  1  0
 13  5  1  0
 14 15  2  0
 14 16  1  0
 16 13  1  0
 17 16  1  0
 18 22  2  0
 18 21  1  0
 19 23  1  0
 19 14  1  0
 20 21  1  0
 20 24  1  0
 21 19  1  0
 24 25  1  0
 24 23  1  0
 26 25  1  0
 27 39  1  0
 27 18  1  0
 28 31  1  0
 28 27  1  0
 29 28  1  0
 30 29  2  0
 32 33  1  1
 32 29  1  0
 34 35  1  0
 34 32  1  0
 35 32  1  0
 39 37  1  6
 39 38  1  0
 39 36  1  0
 41 42  1  0
 42 40  1  0
 43 50  2  0
 43 52  1  0
 45 44  1  0
 45 53  1  0
 46 47  1  0
 47 49  1  0
 48 44  1  0
 48 47  1  0
 50 41  1  0
 51 42  2  0
 52 51  1  0
 53 43  1  0
 53 46  1  0
 54 55  1  0
 54 48  1  0
 54 59  1  0
 56 57  1  0
 56 55  1  0
 57 58  1  0
 58 59  1  0
 60 57  1  0
 61 60  1  0
 62 61  2  0
 63 64  2  0
 63 62  1  0
 64 65  1  0
 65 66  1  0
 65 60  2  0
 66 67  1  0
 68 66  1  0
 69 62  1  0
 69 74  1  0
 70 69  2  0
 71 70  1  0
 71 72  2  0
 72 73  1  0
 73 74  2  0
 75 76  1  0
 75 70  1  0
M  ISO  4  40 101  42 101  48 100  54 100
M  END
>  <TORSDO>  (119) 
F 15

>  <SCORE>  (119) 
-15.288

>  <name>  (119) 
118

>  <ligand_id>  (119) 
118

>  <original_smiles>  (119) 
[H]Oc1c([H])c([H])c([H])c([H])c1-c1nnc(N([H])[H])c(N2C([H])([H])C([H])([H])N(C3([H])C([H])([H])C([H])([H])N(c4nnc(Oc5c([H])c(-c6sc([H])nc6C([H])([H])[H])c([H])c([H])c5C([H])([H])N([H])C(=O)C5([H])N(C(=O)C([H])(N([H])C(=O)C6(F)C([H])([H])C6([H])[H])C(C([H])([H])[H])(C([H])([H])[H])C([H])([H])[H])C([H])([H])C([H])(O[H])C5([H])[H])c([H])n4)C([H])([H])C3([H])C([H])([H])[H])C([H])([H])C2([H])[H])c1[H]

>  <smiles>  (119) 
[H]Oc1c([H])c([H])c([H])c([H])c1-c1nnc(N([H])[H])c(N2C([H])([H])C([H])([H])N(C3([H])C([H])([H])C([H])([H])N(c4nnc(Oc5c([H])c(-c6sc([H])nc6C([H])([H])[H])c([H])c([H])c5C([H])([H])N([H])C(=O)C5([H])N(C(=O)C([H])(N([H])C(=O)C6(F)C([H])([H])C6([H])[H])C(C([H])([H])[H])(C([H])([H])[H])C([H])([H])[H])C([H])([H])C([H])(O[H])C5([H])[H])c([H])n4)C([H])([H])C3([H])C([H])([H])[H])C([H])([H])C2([H])[H])c1[H]

$$$$
119:0:0
     RDKit          3D

 74 82  0  0  1  0  0  0  0  0999 V2000
  -37.3660   13.4990  -23.7000 C   0  0  0  0  0  0  0  0  0  0  0  0
  -36.6820   13.4090  -22.4670 C   0  0  0  0  0  3  0  0  0  0  0  0
  -35.4200   12.7830  -22.3760 C   0  0  0  0  0  0  0  0  0  0  0  0
  -35.5440   12.2900  -24.7700 C   0  0  0  0  0  3  0  0  0  0  0  0
  -36.8160   12.8990  -24.8580 C   0  0  0  0  0  0  0  0  0  0  0  0
  -34.8500   12.2480  -23.5500 C   0  0  0  0  0  3  0  0  0  0  0  0
  -35.1830   12.2210  -19.8730 C   0  0  0  0  0  0  0  0  0  0  0  0
  -33.0110   12.5850  -19.3430 C   0  0  0  0  0  3  0  0  0  0  0  0
  -34.7190   12.6570  -21.0980 C   0  0  0  0  0  0  0  0  0  0  0  0
  -34.1980   12.1830  -18.8840 N   0  0  0  0  0  0  0  0  0  0  0  0
  -33.0170   13.0590  -21.0290 S   0  0  0  0  0  0  0  0  0  0  0  0
  -36.5650   11.7730  -19.5080 C   0  0  0  0  0  1  0  0  0  0  0  0
  -37.6000   12.8650  -26.1740 C   0  0  0  0  0  2  0  0  0  0  0  0
  -36.2310   13.6860  -28.0790 C   0  0  0  0  0  0  0  0  0  0  0  0
  -36.4930   14.8780  -27.9010 O   0  0  0  0  0  0  0  0  0  0  0  0
  -36.7620   12.6990  -27.3530 N   0  0  0  0  0  0  0  0  0  0  0  0
  -36.5080   11.7510  -27.5930 H   0  0  0  0  0  0  0  0  0  0  0  0
  -36.1950   14.4270  -31.1020 C   0  0  0  0  0  0  0  0  0  0  0  0
  -35.1960   13.2520  -29.1300 C   0  0  0  0  0  3  0  0  0  0  0  0
  -33.7330   14.4730  -30.6140 C   0  0  0  0  0  2  0  0  0  0  0  0
  -35.1270   14.1200  -30.3200 N   0  0  0  0  0  0  0  0  0  0  0  0
  -37.3180   13.9580  -30.8810 O   0  0  0  0  0  0  0  0  0  0  0  0
  -33.7910   13.2940  -28.5070 C   0  0  0  0  0  2  0  0  0  0  0  0
  -32.8730   13.6500  -29.6570 C   0  0  0  0  0  3  0  0  0  0  0  0
  -32.4470   12.4770  -30.3340 O   0  0  0  0  0  0  0  0  0  0  0  0
  -33.2170   12.0090  -30.6420 H   0  0  0  0  0  0  0  0  0  0  0  0
  -36.0190   15.3500  -32.3380 C   0  0  0  0  0  3  0  0  0  0  0  0
  -35.8280   17.4570  -30.8550 C   0  0  0  0  0  1  0  0  0  0  0  0
  -36.0840   17.6910  -33.3120 C   0  0  0  0  0  1  0  0  0  0  0  0
  -38.0270   16.9440  -31.9230 C   0  0  0  0  0  1  0  0  0  0  0  0
  -36.4980   16.8290  -32.1000 C   0  0  1  0  0  0  0  0  0  0  0  0
  -36.7660   14.7360  -33.4490 N   0  0  0  0  0  0  0  0  0  0  0  0
  -36.2470   14.1960  -34.5610 C   0  0  0  0  0  0  0  0  0  0  0  0
  -35.0370   14.2280  -34.8020 O   0  0  0  0  0  0  0  0  0  0  0  0
  -37.7600   14.6090  -33.3110 H   0  0  0  0  0  0  0  0  0  0  0  0
  -37.2340   13.5430  -35.4920 C   0  0  1  0  0  0  0  0  0  0  0  0
  -38.5040   13.4040  -34.9560 F   0  0  0  0  0  0  0  0  0  0  0  0
  -37.1440   13.8130  -36.9760 C   0  0  0  0  0  2  0  0  0  0  0  0
  -36.7710   12.4520  -36.4330 C   0  0  0  0  0  2  0  0  0  0  0  0
  -38.5260   14.2330  -23.7700 O   0  0  0  0  0  0  0  0  0  0  0  0
  -40.4260   17.0060  -24.5350 C   0  0  0  0  0  2  0  0  0  0  0  0
  -38.6440   17.6190  -22.9290 C   0  0  0  0  0  2  0  0  0  0  0  0
  -39.5750   15.9160  -25.2070 C   0  0  0  0  0  2  0  0  0  0  0  0
  -37.6750   16.5630  -23.4800 C   0  0  0  0  0  2  0  0  0  0  0  0
  -39.5590   18.1710  -24.0290 C   0  0  0  0  0  3  0  0  0  0  0  0
  -38.3080   15.4950  -24.4200 C   0  0  0  0  0  3  0  0  0  0  0  0
  -38.2920   20.2450  -25.1650 C   0  0  0  0  0  2  0  0  0  0  0  0
  -39.4120   19.8020  -26.0990 C   0  0  0  0  0  3  0  0  0  0  0  0
  -38.7630   18.8170  -25.1610 C   0  0  0  0  0  3  0  0  0  0  0  0
  -40.1870   19.3850  -28.3960 N   0  0  0  0  0  0  0  0  0  0  0  0
  -39.9370   19.3850  -29.8510 C   0  0  0  0  0  2  0  0  0  0  0  0
  -41.2040   19.4870  -30.7230 C   0  0  0  0  0  2  0  0  0  0  0  0
  -42.2380   18.6150  -30.1940 N   0  0  0  0  0  0  0  0  0  0  0  0
  -42.6520   18.8160  -28.8170 C   0  0  0  0  0  2  0  0  0  0  0  0
  -41.5880   19.5170  -27.9480 C   0  0  0  0  0  2  0  0  0  0  0  0
  -39.1310   19.5460  -27.5590 C   0  0  0  0  0  0  0  0  0  0  0  0
  -37.9660   19.4820  -27.9670 O   0  0  0  0  0  0  0  0  0  0  0  0
  -43.1560   18.0290  -31.0920 C   0  0  0  0  0  0  0  0  0  0  0  0
  -44.4550   18.5380  -31.3000 C   0  0  0  0  0  3  0  0  0  0  0  0
  -45.3240   17.8640  -32.1990 C   0  0  0  0  0  0  0  0  0  0  0  0
  -44.8870   16.7430  -32.8430 N   0  0  0  0  0  0  0  0  0  0  0  0
  -43.6650   16.2400  -32.6460 N   0  0  0  0  0  0  0  0  0  0  0  0
  -42.8160   16.8570  -31.8000 C   0  0  0  0  0  0  0  0  0  0  0  0
  -41.5860   16.2510  -31.6100 N   0  0  0  0  0  0  0  0  0  0  0  0
  -41.1220   16.5960  -30.7790 H   0  0  0  0  0  0  0  0  0  0  0  0
  -41.5660   15.2470  -31.7160 H   0  0  0  0  0  0  0  0  0  0  0  0
  -46.7330   18.3040  -32.4920 C   0  0  0  0  0  0  0  0  0  0  0  0
  -47.6510   17.5860  -33.3270 C   0  0  0  0  0  0  0  0  0  0  0  0
  -48.9640   18.0530  -33.5400 C   0  0  0  0  0  3  0  0  0  0  0  0
  -49.4110   19.2380  -32.9400 C   0  0  0  0  0  3  0  0  0  0  0  0
  -48.5350   19.9670  -32.1260 C   0  0  0  0  0  3  0  0  0  0  0  0
  -47.2230   19.5060  -31.9120 C   0  0  0  0  0  3  0  0  0  0  0  0
  -47.3300   16.4210  -33.9640 O   0  0  0  0  0  0  0  0  0  0  0  0
  -46.4200   16.1820  -33.7840 H   0  0  0  0  0  0  0  0  0  0  0  0
  1  2  1  0
  2  3  2  0
  3  9  1  0
  4  6  2  0
  5  4  1  0
  5  1  2  0
  6  3  1  0
  7 12  1  0
  7 10  1  0
  8 10  2  0
  9 11  1  0
  9  7  2  0
 11  8  1  0
 13  5  1  0
 14 15  2  0
 14 16  1  0
 16 13  1  0
 17 16  1  0
 18 22  2  0
 18 21  1  0
 19 23  1  0
 19 14  1  0
 20 21  1  0
 20 24  1  0
 21 19  1  0
 24 25  1  0
 24 23  1  0
 26 25  1  0
 27 31  1  0
 27 18  1  0
 31 29  1  6
 31 30  1  0
 31 28  1  0
 32 35  1  0
 32 27  1  0
 33 32  1  0
 34 33  2  0
 36 37  1  1
 36 33  1  0
 38 39  1  0
 38 36  1  0
 39 36  1  0
 40  1  1  0
 43 41  1  0
 43 46  1  0
 44 42  1  0
 45 41  1  0
 45 42  1  0
 46 40  1  0
 46 44  1  0
 48 56  1  0
 48 47  1  0
 48 49  1  0
 49 47  1  0
 49 45  1  0
 50 55  1  0
 50 56  1  0
 51 50  1  0
 52 53  1  0
 52 51  1  0
 53 54  1  0
 54 55  1  0
 57 56  2  0
 58 53  1  0
 59 58  1  0
 60 59  2  0
 61 62  2  0
 61 60  1  0
 62 63  1  0
 63 64  1  0
 63 58  2  0
 64 65  1  0
 66 64  1  0
 67 60  1  0
 67 72  1  0
 68 67  2  0
 69 68  1  0
 69 70  2  0
 70 71  1  0
 71 72  2  0
 73 74  1  0
 73 68  1  0
M  ISO  4  40 101  46 101  50 100  56 100
M  END
>  <TORSDO>  (120) 
F 16

>  <SCORE>  (120) 
-14.460

>  <name>  (120) 
119

>  <ligand_id>  (120) 
119

>  <original_smiles>  (120) 
[H]Oc1c([H])c([H])c([H])c([H])c1-c1nnc(N([H])[H])c(N2C([H])([H])C([H])([H])N(C(=O)C3([H])C([H])([H])C3([H])C3([H])C([H])([H])C([H])([H])C([H])(Oc4c([H])c(-c5sc([H])nc5C([H])([H])[H])c([H])c([H])c4C([H])([H])N([H])C(=O)C4([H])N(C(=O)C([H])(N([H])C(=O)C5(F)C([H])([H])C5([H])[H])C(C([H])([H])[H])(C([H])([H])[H])C([H])([H])[H])C([H])([H])C([H])(O[H])C4([H])[H])C([H])([H])C3([H])[H])C([H])([H])C2([H])[H])c1[H]

>  <smiles>  (120) 
[H]Oc1c([H])c([H])c([H])c([H])c1-c1nnc(N([H])[H])c(N2C([H])([H])C([H])([H])N(C(=O)C3([H])C([H])([H])C3([H])C3([H])C([H])([H])C([H])([H])C([H])(Oc4c([H])c(-c5sc([H])nc5C([H])([H])[H])c([H])c([H])c4C([H])([H])N([H])C(=O)C4([H])N(C(=O)C([H])(N([H])C(=O)C5(F)C([H])([H])C5([H])[H])C(C([H])([H])[H])(C([H])([H])[H])C([H])([H])[H])C([H])([H])C([H])(O[H])C4([H])[H])C([H])([H])C3([H])[H])C([H])([H])C2([H])[H])c1[H]

$$$$
120:0:0
     RDKit          3D

 79 87  0  0  1  0  0  0  0  0999 V2000
  -38.6780   14.0130  -23.8060 O   0  0  0  0  0  0  0  0  0  0  0  0
  -37.4050   13.4870  -23.7090 C   0  0  0  0  0  0  0  0  0  0  0  0
  -36.6910   13.4120  -22.4860 C   0  0  0  0  0  3  0  0  0  0  0  0
  -35.4130   12.8280  -22.4080 C   0  0  0  0  0  0  0  0  0  0  0  0
  -35.5120   12.3990  -24.8120 C   0  0  0  0  0  3  0  0  0  0  0  0
  -36.8040   12.9700  -24.8840 C   0  0  0  0  0  0  0  0  0  0  0  0
  -34.8250   12.3330  -23.5890 C   0  0  0  0  0  3  0  0  0  0  0  0
  -35.2050   12.2320  -19.9100 C   0  0  0  0  0  0  0  0  0  0  0  0
  -33.0520   12.6430  -19.3420 C   0  0  0  0  0  3  0  0  0  0  0  0
  -34.7290   12.6950  -21.1230 C   0  0  0  0  0  0  0  0  0  0  0  0
  -34.2340   12.2070  -18.9060 N   0  0  0  0  0  0  0  0  0  0  0  0
  -33.0410   13.1410  -21.0220 S   0  0  0  0  0  0  0  0  0  0  0  0
  -36.5800   11.7450  -19.5670 C   0  0  0  0  0  1  0  0  0  0  0  0
  -37.5730   12.9920  -26.2050 C   0  0  0  0  0  2  0  0  0  0  0  0
  -36.1870   13.7210  -28.1280 C   0  0  0  0  0  0  0  0  0  0  0  0
  -36.4390   14.9190  -27.9800 O   0  0  0  0  0  0  0  0  0  0  0  0
  -36.7380   12.7610  -27.3810 N   0  0  0  0  0  0  0  0  0  0  0  0
  -36.5000   11.8010  -27.5880 H   0  0  0  0  0  0  0  0  0  0  0  0
  -36.1200   14.4180  -31.1580 C   0  0  0  0  0  0  0  0  0  0  0  0
  -35.1450   13.2610  -29.1640 C   0  0  0  0  0  3  0  0  0  0  0  0
  -33.6640   14.4720  -30.6420 C   0  0  0  0  0  2  0  0  0  0  0  0
  -35.0620   14.1190  -30.3610 N   0  0  0  0  0  0  0  0  0  0  0  0
  -37.2460   13.9520  -30.9440 O   0  0  0  0  0  0  0  0  0  0  0  0
  -33.7450   13.3070  -28.5280 C   0  0  0  0  0  2  0  0  0  0  0  0
  -32.8140   13.6580  -29.6700 C   0  0  0  0  0  3  0  0  0  0  0  0
  -32.3740   12.4830  -30.3330 O   0  0  0  0  0  0  0  0  0  0  0  0
  -33.1390   12.0080  -30.6440 H   0  0  0  0  0  0  0  0  0  0  0  0
  -35.9330   15.3300  -32.4010 C   0  0  0  0  0  3  0  0  0  0  0  0
  -35.7140   17.4330  -30.9130 C   0  0  0  0  0  1  0  0  0  0  0  0
  -35.9340   17.6720  -33.3760 C   0  0  0  0  0  1  0  0  0  0  0  0
  -37.9110   16.9660  -32.0080 C   0  0  0  0  0  1  0  0  0  0  0  0
  -36.3820   16.8200  -32.1680 C   0  0  1  0  0  0  0  0  0  0  0  0
  -36.6970   14.7260  -33.5040 N   0  0  0  0  0  0  0  0  0  0  0  0
  -36.1950   14.1780  -34.6200 C   0  0  0  0  0  0  0  0  0  0  0  0
  -34.9880   14.1930  -34.8730 O   0  0  0  0  0  0  0  0  0  0  0  0
  -37.6920   14.6100  -33.3580 H   0  0  0  0  0  0  0  0  0  0  0  0
  -37.1990   13.5380  -35.5420 C   0  0  1  0  0  0  0  0  0  0  0  0
  -38.4660   13.4120  -34.9920 F   0  0  0  0  0  0  0  0  0  0  0  0
  -37.1220   13.8070  -37.0260 C   0  0  0  0  0  2  0  0  0  0  0  0
  -36.7600   12.4410  -36.4870 C   0  0  0  0  0  2  0  0  0  0  0  0
  -40.8060   14.7860  -22.9260 C   0  0  0  0  0  2  0  0  0  0  0  0
  -41.0140   16.2270  -22.4420 C   0  0  0  0  0  2  0  0  0  0  0  0
  -38.7640   15.8200  -22.1120 C   0  0  0  0  0  2  0  0  0  0  0  0
  -39.3350   14.4750  -22.6170 C   0  0  0  0  0  3  0  0  0  0  0  0
  -39.7050   16.8620  -22.5080 N   0  0  0  0  0  0  0  0  0  0  0  0
  -39.8340   19.2880  -25.3200 C   0  0  0  0  0  3  0  0  0  0  0  0
  -38.6920   17.2520  -25.9330 C   0  0  0  0  0  3  0  0  0  0  0  0
  -39.2100   18.5010  -26.3110 C   0  0  0  0  0  0  0  0  0  0  0  0
  -39.9920   18.7550  -24.0260 C   0  0  0  0  0  0  0  0  0  0  0  0
  -39.4750   17.4700  -23.7570 C   0  0  0  0  0  0  0  0  0  0  0  0
  -38.8090   16.7580  -24.6900 N   0  0  0  0  0  0  0  0  0  0  0  0
  -40.6480   19.4610  -23.0720 F   0  0  0  0  0  0  0  0  0  0  0  0
  -40.1920   19.2540  -28.4620 N   0  0  0  0  0  0  0  0  0  0  0  0
  -40.0030   19.6450  -29.8760 C   0  0  0  0  0  2  0  0  0  0  0  0
  -41.2640   19.5070  -30.7540 C   0  0  0  0  0  2  0  0  0  0  0  0
  -42.2460   18.6010  -30.1700 N   0  0  0  0  0  0  0  0  0  0  0  0
  -42.6850   18.8900  -28.8130 C   0  0  0  0  0  2  0  0  0  0  0  0
  -41.5580   19.4420  -27.9130 C   0  0  0  0  0  2  0  0  0  0  0  0
  -39.1060   18.9170  -27.7090 C   0  0  0  0  0  3  0  0  0  0  0  0
  -37.8750   18.9400  -28.2590 N   0  0  0  0  0  0  0  0  0  0  0  0
  -37.0490   18.7270  -27.7180 H   0  0  0  0  0  0  0  0  0  0  0  0
  -37.7260   19.2820  -29.1960 H   0  0  0  0  0  0  0  0  0  0  0  0
  -43.1700   18.0150  -31.0660 C   0  0  0  0  0  0  0  0  0  0  0  0
  -44.4780   18.5120  -31.2700 C   0  0  0  0  0  3  0  0  0  0  0  0
  -45.3380   17.8360  -32.1790 C   0  0  0  0  0  0  0  0  0  0  0  0
  -44.8840   16.7310  -32.8360 N   0  0  0  0  0  0  0  0  0  0  0  0
  -43.6560   16.2430  -32.6480 N   0  0  0  0  0  0  0  0  0  0  0  0
  -42.8170   16.8580  -31.7930 C   0  0  0  0  0  0  0  0  0  0  0  0
  -41.5780   16.2680  -31.6160 N   0  0  0  0  0  0  0  0  0  0  0  0
  -41.1240   16.5800  -30.7690 H   0  0  0  0  0  0  0  0  0  0  0  0
  -41.5440   15.2680  -31.7640 H   0  0  0  0  0  0  0  0  0  0  0  0
  -46.7540   18.2580  -32.4670 C   0  0  0  0  0  0  0  0  0  0  0  0
  -47.6530   17.5490  -33.3310 C   0  0  0  0  0  0  0  0  0  0  0  0
  -48.9740   17.9930  -33.5380 C   0  0  0  0  0  3  0  0  0  0  0  0
  -49.4480   19.1490  -32.9020 C   0  0  0  0  0  3  0  0  0  0  0  0
  -48.5910   19.8700  -32.0610 C   0  0  0  0  0  3  0  0  0  0  0  0
  -47.2710   19.4300  -31.8530 C   0  0  0  0  0  3  0  0  0  0  0  0
  -47.3040   16.4110  -34.0020 O   0  0  0  0  0  0  0  0  0  0  0  0
  -46.3890   16.1860  -33.8250 H   0  0  0  0  0  0  0  0  0  0  0  0
  1  2  1  0
  2  3  1  0
  3  4  2  0
  4 10  1  0
  5  7  2  0
  6  5  1  0
  6  2  2  0
  7  4  1  0
  8 13  1  0
  8 11  1  0
  9 11  2  0
 10 12  1  0
 10  8  2  0
 12  9  1  0
 14  6  1  0
 15 16  2  0
 15 17  1  0
 17 14  1  0
 18 17  1  0
 19 23  2  0
 19 22  1  0
 20 24  1  0
 20 15  1  0
 21 22  1  0
 21 25  1  0
 22 20  1  0
 25 26  1  0
 25 24  1  0
 27 26  1  0
 28 32  1  0
 28 19  1  0
 32 30  1  6
 32 31  1  0
 32 29  1  0
 33 36  1  0
 33 28  1  0
 34 33  1  0
 35 34  2  0
 37 38  1  1
 37 34  1  0
 39 40  1  0
 39 37  1  0
 40 37  1  0
 41 44  1  0
 41 42  1  0
 44  1  1  0
 44 43  1  0
 45 42  1  0
 45 43  1  0
 46 49  1  0
 47 51  2  0
 48 47  1  0
 48 46  2  0
 49 50  2  0
 49 52  1  0
 50 45  1  0
 51 50  1  0
 53 58  1  0
 53 59  1  0
 54 53  1  0
 55 56  1  0
 55 54  1  0
 56 57  1  0
 57 58  1  0
 59 60  1  0
 59 48  1  0
 60 61  1  0
 62 60  1  0
 63 56  1  0
 64 63  1  0
 65 64  2  0
 66 67  2  0
 66 65  1  0
 67 68  1  0
 68 69  1  0
 68 63  2  0
 69 70  1  0
 71 69  1  0
 72 65  1  0
 72 77  1  0
 73 72  2  0
 74 73  1  0
 74 75  2  0
 75 76  1  0
 76 77  2  0
 78 79  1  0
 78 73  1  0
M  ISO  4   1 101  44 101  53 100  59 100
M  END
>  <TORSDO>  (121) 
F 16

>  <SCORE>  (121) 
-14.539

>  <name>  (121) 
120

>  <ligand_id>  (121) 
120

>  <original_smiles>  (121) 
[H]Oc1c([H])c([H])c([H])c([H])c1-c1nnc(N([H])[H])c(N2C([H])([H])C([H])([H])N(C(c3c([H])nc(N4C([H])([H])C([H])([H])C([H])(Oc5c([H])c(-c6sc([H])nc6C([H])([H])[H])c([H])c([H])c5C([H])([H])N([H])C(=O)C5([H])N(C(=O)C([H])(N([H])C(=O)C6(F)C([H])([H])C6([H])[H])C(C([H])([H])[H])(C([H])([H])[H])C([H])([H])[H])C([H])([H])C([H])(O[H])C5([H])[H])C4([H])[H])c(F)c3[H])=[N+]([H])[H])C([H])([H])C2([H])[H])c1[H]

>  <smiles>  (121) 
[H]Oc1c([H])c([H])c([H])c([H])c1-c1nnc(N([H])[H])c(N2C([H])([H])C([H])([H])N(C(c3c([H])nc(N4C([H])([H])C([H])([H])C([H])(Oc5c([H])c(-c6sc([H])nc6C([H])([H])[H])c([H])c([H])c5C([H])([H])N([H])C(=O)C5([H])N(C(=O)C([H])(N([H])C(=O)C6(F)C([H])([H])C6([H])[H])C(C([H])([H])[H])(C([H])([H])[H])C([H])([H])[H])C([H])([H])C([H])(O[H])C5([H])[H])C4([H])[H])c(F)c3[H])=[N+]([H])[H])C([H])([H])C2([H])[H])c1[H]

$$$$
121:0:0
     RDKit          3D

 71 78  0  0  1  0  0  0  0  0999 V2000
  -37.3610   13.7750  -23.8990 C   0  0  0  0  0  0  0  0  0  0  0  0
  -36.7190   13.6620  -22.6120 C   0  0  0  0  0  3  0  0  0  0  0  0
  -35.4970   12.9390  -22.4100 C   0  0  0  0  0  0  0  0  0  0  0  0
  -35.5750   12.3200  -24.7650 C   0  0  0  0  0  3  0  0  0  0  0  0
  -36.8060   12.9980  -24.9470 C   0  0  0  0  0  0  0  0  0  0  0  0
  -34.9180   12.3100  -23.5270 C   0  0  0  0  0  3  0  0  0  0  0  0
  -35.2530   12.3440  -19.8840 C   0  0  0  0  0  0  0  0  0  0  0  0
  -33.0790   12.7040  -19.3430 C   0  0  0  0  0  3  0  0  0  0  0  0
  -34.8010   12.8010  -21.1100 C   0  0  0  0  0  0  0  0  0  0  0  0
  -34.2670   12.3030  -18.8910 N   0  0  0  0  0  0  0  0  0  0  0  0
  -33.0860   13.1750  -21.0320 S   0  0  0  0  0  0  0  0  0  0  0  0
  -36.6250   11.8790  -19.5170 C   0  0  0  0  0  1  0  0  0  0  0  0
  -37.5570   12.8130  -26.2600 C   0  0  0  0  0  2  0  0  0  0  0  0
  -36.1750   13.6470  -28.1260 C   0  0  0  0  0  0  0  0  0  0  0  0
  -36.4760   14.8320  -27.9720 O   0  0  0  0  0  0  0  0  0  0  0  0
  -36.6820   12.6510  -27.4010 N   0  0  0  0  0  0  0  0  0  0  0  0
  -36.3890   11.7090  -27.6200 H   0  0  0  0  0  0  0  0  0  0  0  0
  -36.1130   14.3590  -31.1430 C   0  0  0  0  0  0  0  0  0  0  0  0
  -35.1130   13.2260  -29.1490 C   0  0  0  0  0  3  0  0  0  0  0  0
  -33.6590   14.4610  -30.6210 C   0  0  0  0  0  2  0  0  0  0  0  0
  -35.0500   14.0820  -30.3450 N   0  0  0  0  0  0  0  0  0  0  0  0
  -37.2290   13.8680  -30.9320 O   0  0  0  0  0  0  0  0  0  0  0  0
  -33.7230   13.3100  -28.4990 C   0  0  0  0  0  2  0  0  0  0  0  0
  -32.7970   13.6650  -29.6420 C   0  0  0  0  0  3  0  0  0  0  0  0
  -32.3410   12.4890  -30.2940 O   0  0  0  0  0  0  0  0  0  0  0  0
  -33.1000   12.0060  -30.6060 H   0  0  0  0  0  0  0  0  0  0  0  0
  -35.9390   15.2710  -32.3850 C   0  0  0  0  0  3  0  0  0  0  0  0
  -36.6960   14.6510  -33.4860 N   0  0  0  0  0  0  0  0  0  0  0  0
  -36.1900   14.1310  -34.6120 C   0  0  0  0  0  0  0  0  0  0  0  0
  -34.9860   14.1890  -34.8780 O   0  0  0  0  0  0  0  0  0  0  0  0
  -37.6830   14.4970  -33.3240 H   0  0  0  0  0  0  0  0  0  0  0  0
  -37.1820   13.4700  -35.5300 C   0  0  1  0  0  0  0  0  0  0  0  0
  -38.4320   13.2820  -34.9610 F   0  0  0  0  0  0  0  0  0  0  0  0
  -37.1420   13.7750  -37.0090 C   0  0  0  0  0  2  0  0  0  0  0  0
  -36.7160   12.4130  -36.5070 C   0  0  0  0  0  2  0  0  0  0  0  0
  -35.7610   17.3750  -30.8960 C   0  0  0  0  0  1  0  0  0  0  0  0
  -35.9610   17.6140  -33.3580 C   0  0  0  0  0  1  0  0  0  0  0  0
  -37.9410   16.8780  -32.0100 C   0  0  0  0  0  1  0  0  0  0  0  0
  -36.4090   16.7540  -32.1560 C   0  0  1  0  0  0  0  0  0  0  0  0
  -38.5340   14.5500  -24.1040 O   0  0  0  0  0  0  0  0  0  0  0  0
  -38.0090   16.7020  -25.4570 C   0  0  0  0  0  3  0  0  0  0  0  0
  -39.9590   15.4650  -25.9260 C   0  0  0  0  0  3  0  0  0  0  0  0
  -38.3970   17.6940  -26.4500 C   0  0  0  0  0  0  0  0  0  0  0  0
  -40.3500   16.4180  -26.9330 C   0  0  0  0  0  0  0  0  0  0  0  0
  -39.6160   17.6250  -27.2250 C   0  0  0  0  0  0  0  0  0  0  0  0
  -38.7810   15.5420  -25.1340 C   0  0  0  0  0  0  0  0  0  0  0  0
  -37.4440   18.8640  -26.6350 C   0  0  0  0  0  1  0  0  0  0  0  0
  -41.5970   16.0440  -27.7110 C   0  0  0  0  0  1  0  0  0  0  0  0
  -40.1170   18.7090  -28.1070 N   0  0  0  0  0  0  0  0  0  0  0  0
  -39.6940   19.0770  -29.4980 C   0  0  0  0  0  2  0  0  0  0  0  0
  -40.8780   19.3140  -30.5240 C   0  0  0  0  0  2  0  0  0  0  0  0
  -42.1140   18.6640  -30.0810 N   0  0  0  0  0  0  0  0  0  0  0  0
  -42.5590   19.0290  -28.7380 C   0  0  0  0  0  2  0  0  0  0  0  0
  -41.3860   19.3670  -27.7610 C   0  0  0  0  0  2  0  0  0  0  0  0
  -43.0150   18.0560  -30.9970 C   0  0  0  0  0  0  0  0  0  0  0  0
  -44.3190   18.5530  -31.2290 C   0  0  0  0  0  3  0  0  0  0  0  0
  -45.1880   17.8680  -32.1280 C   0  0  0  0  0  0  0  0  0  0  0  0
  -44.7490   16.7350  -32.7460 N   0  0  0  0  0  0  0  0  0  0  0  0
  -43.5320   16.2330  -32.5250 N   0  0  0  0  0  0  0  0  0  0  0  0
  -42.6830   16.8630  -31.6850 C   0  0  0  0  0  0  0  0  0  0  0  0
  -41.4690   16.2390  -31.4690 N   0  0  0  0  0  0  0  0  0  0  0  0
  -41.0080   16.5990  -30.6410 H   0  0  0  0  0  0  0  0  0  0  0  0
  -41.4800   15.2320  -31.5320 H   0  0  0  0  0  0  0  0  0  0  0  0
  -46.5930   18.3070  -32.4440 C   0  0  0  0  0  0  0  0  0  0  0  0
  -47.4980   17.5950  -33.3000 C   0  0  0  0  0  0  0  0  0  0  0  0
  -48.8080   18.0620  -33.5330 C   0  0  0  0  0  3  0  0  0  0  0  0
  -49.2660   19.2430  -32.9320 C   0  0  0  0  0  3  0  0  0  0  0  0
  -48.4040   19.9670  -32.0990 C   0  0  0  0  0  3  0  0  0  0  0  0
  -47.0960   19.5050  -31.8640 C   0  0  0  0  0  3  0  0  0  0  0  0
  -47.1660   16.4340  -33.9390 O   0  0  0  0  0  0  0  0  0  0  0  0
  -46.2580   16.1980  -33.7450 H   0  0  0  0  0  0  0  0  0  0  0  0
  1  2  1  0
  2  3  2  0
  3  9  1  0
  4  6  2  0
  5  4  1  0
  5  1  2  0
  6  3  1  0
  7 12  1  0
  7 10  1  0
  8 10  2  0
  9 11  1  0
  9  7  2  0
 11  8  1  0
 13  5  1  0
 14 15  2  0
 14 16  1  0
 16 13  1  0
 17 16  1  0
 18 22  2  0
 18 21  1  0
 19 23  1  0
 19 14  1  0
 20 21  1  0
 20 24  1  0
 21 19  1  0
 24 25  1  0
 24 23  1  0
 26 25  1  0
 27 39  1  0
 27 18  1  0
 28 31  1  0
 28 27  1  0
 29 28  1  0
 30 29  2  0
 32 33  1  1
 32 29  1  0
 34 35  1  0
 34 32  1  0
 35 32  1  0
 39 37  1  6
 39 38  1  0
 39 36  1  0
 40  1  1  0
 41 46  1  0
 42 46  2  0
 43 41  2  0
 44 42  1  0
 45 44  2  0
 45 43  1  0
 46 40  1  0
 47 43  1  0
 48 44  1  0
 49 54  1  0
 49 45  1  0
 50 49  1  0
 51 52  1  0
 51 50  1  0
 52 53  1  0
 53 54  1  0
 55 52  1  0
 56 55  1  0
 57 56  2  0
 58 59  2  0
 58 57  1  0
 59 60  1  0
 60 61  1  0
 60 55  2  0
 61 62  1  0
 63 61  1  0
 64 57  1  0
 64 69  1  0
 65 64  2  0
 66 65  1  0
 66 67  2  0
 67 68  1  0
 68 69  2  0
 70 71  1  0
 70 65  1  0
M  ISO  4  40 101  45 100  46 101  49 100
M  END
>  <TORSDO>  (122) 
F 15

>  <SCORE>  (122) 
-14.881

>  <name>  (122) 
121

>  <ligand_id>  (122) 
121

>  <original_smiles>  (122) 
[H]Oc1c([H])c([H])c([H])c([H])c1-c1nnc(N([H])[H])c(N2C([H])([H])C([H])([H])N(c3c(C([H])([H])[H])c([H])c(Oc4c([H])c(-c5sc([H])nc5C([H])([H])[H])c([H])c([H])c4C([H])([H])N([H])C(=O)C4([H])N(C(=O)C([H])(N([H])C(=O)C5(F)C([H])([H])C5([H])[H])C(C([H])([H])[H])(C([H])([H])[H])C([H])([H])[H])C([H])([H])C([H])(O[H])C4([H])[H])c([H])c3C([H])([H])[H])C([H])([H])C2([H])[H])c1[H]

>  <smiles>  (122) 
[H]Oc1c([H])c([H])c([H])c([H])c1-c1nnc(N([H])[H])c(N2C([H])([H])C([H])([H])N(c3c(C([H])([H])[H])c([H])c(Oc4c([H])c(-c5sc([H])nc5C([H])([H])[H])c([H])c([H])c4C([H])([H])N([H])C(=O)C4([H])N(C(=O)C([H])(N([H])C(=O)C5(F)C([H])([H])C5([H])[H])C(C([H])([H])[H])(C([H])([H])[H])C([H])([H])[H])C([H])([H])C([H])(O[H])C4([H])[H])c([H])c3C([H])([H])[H])C([H])([H])C2([H])[H])c1[H]

$$$$
122:0:0
     RDKit          3D

 76 84  0  0  1  0  0  0  0  0999 V2000
  -37.2750   13.4520  -23.6050 C   0  0  0  0  0  0  0  0  0  0  0  0
  -36.5670   13.3380  -22.4030 C   0  0  0  0  0  3  0  0  0  0  0  0
  -35.3190   12.7040  -22.3420 C   0  0  0  0  0  0  0  0  0  0  0  0
  -35.4320   12.3250  -24.7470 C   0  0  0  0  0  3  0  0  0  0  0  0
  -36.7040   12.9440  -24.8070 C   0  0  0  0  0  0  0  0  0  0  0  0
  -34.7440   12.2120  -23.5290 C   0  0  0  0  0  3  0  0  0  0  0  0
  -35.1460   12.0470  -19.8630 C   0  0  0  0  0  0  0  0  0  0  0  0
  -32.9910   12.4380  -19.2750 C   0  0  0  0  0  3  0  0  0  0  0  0
  -34.6530   12.5350  -21.0570 C   0  0  0  0  0  0  0  0  0  0  0  0
  -34.1780   11.9950  -18.8570 N   0  0  0  0  0  0  0  0  0  0  0  0
  -32.9690   12.9790  -20.9380 S   0  0  0  0  0  0  0  0  0  0  0  0
  -36.5320   11.5590  -19.5490 C   0  0  0  0  0  1  0  0  0  0  0  0
  -37.4120   13.0620  -26.1440 C   0  0  0  0  0  2  0  0  0  0  0  0
  -36.0790   13.7650  -28.0960 C   0  0  0  0  0  0  0  0  0  0  0  0
  -36.3740   14.9580  -27.9830 O   0  0  0  0  0  0  0  0  0  0  0  0
  -36.5720   12.8180  -27.3060 N   0  0  0  0  0  0  0  0  0  0  0  0
  -36.2600   11.8690  -27.4600 H   0  0  0  0  0  0  0  0  0  0  0  0
  -36.0380   14.4480  -31.1240 C   0  0  0  0  0  0  0  0  0  0  0  0
  -35.0520   13.2930  -29.1330 C   0  0  0  0  0  3  0  0  0  0  0  0
  -33.5780   14.4900  -30.6260 C   0  0  0  0  0  2  0  0  0  0  0  0
  -34.9760   14.1460  -30.3330 N   0  0  0  0  0  0  0  0  0  0  0  0
  -37.1630   13.9840  -30.9070 O   0  0  0  0  0  0  0  0  0  0  0  0
  -33.6490   13.3260  -28.5060 C   0  0  0  0  0  2  0  0  0  0  0  0
  -32.7250   13.6780  -29.6520 C   0  0  0  0  0  3  0  0  0  0  0  0
  -32.3040   12.4990  -30.3200 O   0  0  0  0  0  0  0  0  0  0  0  0
  -33.0780   12.0360  -30.6230 H   0  0  0  0  0  0  0  0  0  0  0  0
  -35.8540   15.3610  -32.3670 C   0  0  0  0  0  3  0  0  0  0  0  0
  -35.6390   17.4680  -30.8860 C   0  0  0  0  0  1  0  0  0  0  0  0
  -35.8690   17.7000  -33.3400 C   0  0  0  0  0  1  0  0  0  0  0  0
  -37.8420   16.9930  -31.9810 C   0  0  0  0  0  1  0  0  0  0  0  0
  -36.3100   16.8470  -32.1340 C   0  0  1  0  0  0  0  0  0  0  0  0
  -36.6120   14.7530  -33.4760 N   0  0  0  0  0  0  0  0  0  0  0  0
  -36.1060   14.2210  -34.5980 C   0  0  0  0  0  0  0  0  0  0  0  0
  -34.8990   14.2610  -34.8580 O   0  0  0  0  0  0  0  0  0  0  0  0
  -37.6030   14.6210  -33.3260 H   0  0  0  0  0  0  0  0  0  0  0  0
  -37.1040   13.5770  -35.5220 C   0  0  1  0  0  0  0  0  0  0  0  0
  -38.3640   13.4230  -34.9650 F   0  0  0  0  0  0  0  0  0  0  0  0
  -37.0420   13.8610  -37.0040 C   0  0  0  0  0  2  0  0  0  0  0  0
  -36.6520   12.4960  -36.4800 C   0  0  0  0  0  2  0  0  0  0  0  0
  -38.4100   14.2030  -23.4620 O   0  0  0  0  0  0  0  0  0  0  0  0
  -40.9850   12.7830  -25.5560 C   0  0  0  0  0  3  0  0  0  0  0  0
  -40.0560   12.7130  -24.5050 C   0  0  0  0  0  3  0  0  0  0  0  0
  -40.4930   15.0460  -23.9970 C   0  0  0  0  0  3  0  0  0  0  0  0
  -41.5120   14.0420  -25.9240 C   0  0  0  0  0  0  0  0  0  0  0  0
  -41.5200   15.0720  -24.9440 C   0  0  0  0  0  0  0  0  0  0  0  0
  -39.6440   13.9360  -23.9530 C   0  0  0  0  0  0  0  0  0  0  0  0
  -42.4700   16.2430  -24.8830 C   0  0  0  0  0  1  0  0  0  0  0  0
  -40.1040   14.7140  -27.9620 C   0  0  0  0  0  2  0  0  0  0  0  0
  -42.5340   15.2190  -28.0260 C   0  0  0  0  0  2  0  0  0  0  0  0
  -39.7000   16.1820  -27.6460 C   0  0  0  0  0  2  0  0  0  0  0  0
  -42.1310   16.7000  -28.0420 C   0  0  0  0  0  2  0  0  0  0  0  0
  -41.5030   14.2910  -27.4370 C   0  0  0  0  0  3  0  0  0  0  0  0
  -40.6450   17.1370  -28.3890 C   0  0  0  0  0  3  0  0  0  0  0  0
  -40.2500   18.6060  -28.2910 N   0  0  0  0  0  0  0  0  0  0  0  0
  -39.7260   19.1710  -29.5670 C   0  0  0  0  0  2  0  0  0  0  0  0
  -40.8010   19.3530  -30.6830 C   0  0  0  0  0  2  0  0  0  0  0  0
  -42.0890   18.8420  -30.2500 N   0  0  0  0  0  0  0  0  0  0  0  0
  -42.5390   19.3720  -28.9530 C   0  0  0  0  0  2  0  0  0  0  0  0
  -41.3790   19.4700  -27.9180 C   0  0  0  0  0  2  0  0  0  0  0  0
  -42.9250   18.0750  -31.0910 C   0  0  0  0  0  0  0  0  0  0  0  0
  -44.2540   18.4880  -31.2790 C   0  0  0  0  0  3  0  0  0  0  0  0
  -45.0890   17.7700  -32.1620 C   0  0  0  0  0  0  0  0  0  0  0  0
  -44.6100   16.6640  -32.7960 N   0  0  0  0  0  0  0  0  0  0  0  0
  -43.3680   16.2170  -32.5960 N   0  0  0  0  0  0  0  0  0  0  0  0
  -42.5380   16.8850  -31.7680 C   0  0  0  0  0  0  0  0  0  0  0  0
  -41.2910   16.3040  -31.6170 N   0  0  0  0  0  0  0  0  0  0  0  0
  -40.5850   16.8820  -31.1880 H   0  0  0  0  0  0  0  0  0  0  0  0
  -40.9770   15.6780  -32.3430 H   0  0  0  0  0  0  0  0  0  0  0  0
  -46.5050   18.1760  -32.4530 C   0  0  0  0  0  0  0  0  0  0  0  0
  -47.3820   17.4620  -33.3300 C   0  0  0  0  0  0  0  0  0  0  0  0
  -48.7050   17.8950  -33.5450 C   0  0  0  0  0  3  0  0  0  0  0  0
  -49.1980   19.0420  -32.9070 C   0  0  0  0  0  3  0  0  0  0  0  0
  -48.3610   19.7660  -32.0500 C   0  0  0  0  0  3  0  0  0  0  0  0
  -47.0400   19.3370  -31.8310 C   0  0  0  0  0  3  0  0  0  0  0  0
  -47.0100   16.3350  -34.0080 O   0  0  0  0  0  0  0  0  0  0  0  0
  -46.0960   16.1200  -33.8190 H   0  0  0  0  0  0  0  0  0  0  0  0
  1 40  1  0
  1  2  1  0
  2  3  2  0
  3  9  1  0
  4  6  2  0
  5  4  1  0
  5  1  2  0
  6  3  1  0
  7 12  1  0
  7 10  1  0
  8 10  2  0
  9 11  1  0
  9  7  2  0
 11  8  1  0
 13  5  1  0
 14 15  2  0
 14 16  1  0
 16 13  1  0
 17 16  1  0
 18 22  2  0
 18 21  1  0
 19 23  1  0
 19 14  1  0
 20 21  1  0
 20 24  1  0
 21 19  1  0
 24 25  1  0
 24 23  1  0
 26 25  1  0
 27 31  1  0
 27 18  1  0
 31 29  1  6
 31 30  1  0
 31 28  1  0
 32 35  1  0
 32 27  1  0
 33 32  1  0
 34 33  2  0
 36 37  1  1
 36 33  1  0
 38 39  1  0
 38 36  1  0
 39 36  1  0
 41 42  1  0
 42 46  2  0
 43 46  1  0
 44 41  2  0
 44 45  1  0
 45 47  1  0
 45 43  2  0
 46 40  1  0
 48 50  1  0
 48 52  1  0
 49 52  1  0
 51 49  1  0
 52 44  1  0
 53 54  1  0
 53 51  1  0
 53 50  1  0
 54 55  1  0
 54 59  1  0
 56 57  1  0
 56 55  1  0
 57 58  1  0
 58 59  1  0
 60 57  1  0
 61 60  1  0
 62 61  2  0
 63 64  2  0
 63 62  1  0
 64 65  1  0
 65 66  1  0
 65 60  2  0
 66 67  1  0
 68 66  1  0
 69 62  1  0
 69 74  1  0
 70 69  2  0
 71 70  1  0
 71 72  2  0
 72 73  1  0
 73 74  2  0
 75 76  1  0
 75 70  1  0
M  ISO  4  40 101  46 101  53 100  54 100
M  END
>  <TORSDO>  (123) 
F 16

>  <SCORE>  (123) 
-14.818

>  <name>  (123) 
122

>  <ligand_id>  (123) 
122

>  <original_smiles>  (123) 
[H]Oc1c([H])c([H])c([H])c([H])c1-c1nnc(N([H])[H])c(N2C([H])([H])C([H])([H])N(C3([H])C([H])([H])C([H])([H])C([H])(c4c([H])c([H])c(Oc5c([H])c(-c6sc([H])nc6C([H])([H])[H])c([H])c([H])c5C([H])([H])N([H])C(=O)C5([H])N(C(=O)C([H])(N([H])C(=O)C6(F)C([H])([H])C6([H])[H])C(C([H])([H])[H])(C([H])([H])[H])C([H])([H])[H])C([H])([H])C([H])(O[H])C5([H])[H])c([H])c4C([H])([H])[H])C([H])([H])C3([H])[H])C([H])([H])C2([H])[H])c1[H]

>  <smiles>  (123) 
[H]Oc1c([H])c([H])c([H])c([H])c1-c1nnc(N([H])[H])c(N2C([H])([H])C([H])([H])N(C3([H])C([H])([H])C([H])([H])C([H])(c4c([H])c([H])c(Oc5c([H])c(-c6sc([H])nc6C([H])([H])[H])c([H])c([H])c5C([H])([H])N([H])C(=O)C5([H])N(C(=O)C([H])(N([H])C(=O)C6(F)C([H])([H])C6([H])[H])C(C([H])([H])[H])(C([H])([H])[H])C([H])([H])[H])C([H])([H])C([H])(O[H])C5([H])[H])c([H])c4C([H])([H])[H])C([H])([H])C3([H])[H])C([H])([H])C2([H])[H])c1[H]

$$$$
123:0:0
     RDKit          3D

 75 83  0  0  1  0  0  0  0  0999 V2000
  -37.4010   13.4690  -23.6800 C   0  0  0  0  0  0  0  0  0  0  0  0
  -36.7130   13.3790  -22.4490 C   0  0  0  0  0  3  0  0  0  0  0  0
  -35.4550   12.7480  -22.3630 C   0  0  0  0  0  0  0  0  0  0  0  0
  -35.5720   12.2870  -24.7650 C   0  0  0  0  0  3  0  0  0  0  0  0
  -36.8410   12.9030  -24.8470 C   0  0  0  0  0  0  0  0  0  0  0  0
  -34.8860   12.2190  -23.5400 C   0  0  0  0  0  3  0  0  0  0  0  0
  -35.2500   12.1760  -19.8580 C   0  0  0  0  0  0  0  0  0  0  0  0
  -33.0760   12.4960  -19.3120 C   0  0  0  0  0  3  0  0  0  0  0  0
  -34.7670   12.6030  -21.0800 C   0  0  0  0  0  0  0  0  0  0  0  0
  -34.2740   12.1180  -18.8630 N   0  0  0  0  0  0  0  0  0  0  0  0
  -33.0590   12.9730  -20.9970 S   0  0  0  0  0  0  0  0  0  0  0  0
  -36.6440   11.7550  -19.5050 C   0  0  0  0  0  1  0  0  0  0  0  0
  -37.6180   12.9500  -26.1610 C   0  0  0  0  0  2  0  0  0  0  0  0
  -36.2140   13.7150  -28.0560 C   0  0  0  0  0  0  0  0  0  0  0  0
  -36.4440   14.9120  -27.8710 O   0  0  0  0  0  0  0  0  0  0  0  0
  -36.7840   12.7410  -27.3400 N   0  0  0  0  0  0  0  0  0  0  0  0
  -36.5610   11.7840  -27.5760 H   0  0  0  0  0  0  0  0  0  0  0  0
  -36.1630   14.4570  -31.0730 C   0  0  0  0  0  0  0  0  0  0  0  0
  -35.1820   13.2660  -29.1020 C   0  0  0  0  0  3  0  0  0  0  0  0
  -33.7040   14.4870  -30.5740 C   0  0  0  0  0  2  0  0  0  0  0  0
  -35.1010   14.1400  -30.2880 N   0  0  0  0  0  0  0  0  0  0  0  0
  -37.2900   13.9920  -30.8600 O   0  0  0  0  0  0  0  0  0  0  0  0
  -33.7770   13.2950  -28.4740 C   0  0  0  0  0  2  0  0  0  0  0  0
  -32.8520   13.6540  -29.6180 C   0  0  0  0  0  3  0  0  0  0  0  0
  -32.4310   12.4830  -30.3000 O   0  0  0  0  0  0  0  0  0  0  0  0
  -33.2020   12.0220  -30.6130 H   0  0  0  0  0  0  0  0  0  0  0  0
  -35.9790   15.3860  -32.3030 C   0  0  0  0  0  3  0  0  0  0  0  0
  -35.7260   17.4890  -30.8200 C   0  0  0  0  0  1  0  0  0  0  0  0
  -36.0350   17.7300  -33.2710 C   0  0  0  0  0  1  0  0  0  0  0  0
  -37.9550   17.0050  -31.8370 C   0  0  0  0  0  1  0  0  0  0  0  0
  -36.4320   16.8710  -32.0510 C   0  0  1  0  0  0  0  0  0  0  0  0
  -36.7410   14.7940  -33.4140 N   0  0  0  0  0  0  0  0  0  0  0  0
  -36.2350   14.2330  -34.5220 C   0  0  0  0  0  0  0  0  0  0  0  0
  -35.0240   14.2260  -34.7600 O   0  0  0  0  0  0  0  0  0  0  0  0
  -37.7390   14.6990  -33.2790 H   0  0  0  0  0  0  0  0  0  0  0  0
  -37.2390   13.6100  -35.4550 C   0  0  1  0  0  0  0  0  0  0  0  0
  -38.5150   13.5140  -34.9230 F   0  0  0  0  0  0  0  0  0  0  0  0
  -37.1340   13.8700  -36.9390 C   0  0  0  0  0  2  0  0  0  0  0  0
  -36.8110   12.4980  -36.3900 C   0  0  0  0  0  2  0  0  0  0  0  0
  -38.6090   14.1200  -23.7370 O   0  0  0  0  0  0  0  0  0  0  0  0
  -39.1910   16.0740  -22.4360 C   0  0  0  0  0  3  0  0  0  0  0  0
  -39.0130   17.4550  -22.3020 C   0  0  0  0  0  3  0  0  0  0  0  0
  -38.5610   15.4750  -23.5300 C   0  0  0  0  0  0  0  0  0  0  0  0
  -37.7530   17.4850  -24.1970 C   0  0  0  0  0  0  0  0  0  0  0  0
  -38.2890   18.1630  -23.1920 N   0  0  0  0  0  0  0  0  0  0  0  0
  -37.8400   16.1890  -24.4100 N   0  0  0  0  0  0  0  0  0  0  0  0
  -37.1080   18.1790  -25.1890 N   0  0  0  0  0  0  0  0  0  0  0  0
  -36.6560   17.5460  -25.8360 H   0  0  0  0  0  0  0  0  0  0  0  0
  -39.2650   19.3220  -25.9120 C   0  0  0  0  0  2  0  0  0  0  0  0
  -37.7480   19.1950  -27.3850 C   0  0  0  0  0  2  0  0  0  0  0  0
  -37.7300   19.3230  -25.8530 C   0  0  0  0  0  3  0  0  0  0  0  0
  -39.1880   19.7290  -27.3850 C   0  0  0  0  0  3  0  0  0  0  0  0
  -40.1910   19.1950  -28.3110 N   0  0  0  0  0  0  0  0  0  0  0  0
  -39.9000   19.5550  -29.7100 C   0  0  0  0  0  2  0  0  0  0  0  0
  -41.1470   19.5210  -30.6420 C   0  0  0  0  0  2  0  0  0  0  0  0
  -42.1960   18.6470  -30.1220 N   0  0  0  0  0  0  0  0  0  0  0  0
  -42.5850   18.8140  -28.7230 C   0  0  0  0  0  2  0  0  0  0  0  0
  -41.5360   19.6260  -27.9270 C   0  0  0  0  0  2  0  0  0  0  0  0
  -43.0880   18.0320  -31.0220 C   0  0  0  0  0  0  0  0  0  0  0  0
  -44.3990   18.5040  -31.2300 C   0  0  0  0  0  3  0  0  0  0  0  0
  -45.2440   17.8170  -32.1430 C   0  0  0  0  0  0  0  0  0  0  0  0
  -44.7710   16.7160  -32.7950 N   0  0  0  0  0  0  0  0  0  0  0  0
  -43.5370   16.2440  -32.5960 N   0  0  0  0  0  0  0  0  0  0  0  0
  -42.7100   16.8750  -31.7390 C   0  0  0  0  0  0  0  0  0  0  0  0
  -41.4650   16.3040  -31.5490 N   0  0  0  0  0  0  0  0  0  0  0  0
  -41.0170   16.6550  -30.7110 H   0  0  0  0  0  0  0  0  0  0  0  0
  -41.4190   15.3010  -31.6570 H   0  0  0  0  0  0  0  0  0  0  0  0
  -46.6600   18.2240  -32.4380 C   0  0  0  0  0  0  0  0  0  0  0  0
  -47.5580   17.4870  -33.2790 C   0  0  0  0  0  0  0  0  0  0  0  0
  -48.8820   17.9220  -33.4940 C   0  0  0  0  0  3  0  0  0  0  0  0
  -49.3600   19.0930  -32.8910 C   0  0  0  0  0  3  0  0  0  0  0  0
  -48.5040   19.8410  -32.0720 C   0  0  0  0  0  3  0  0  0  0  0  0
  -47.1820   19.4110  -31.8560 C   0  0  0  0  0  3  0  0  0  0  0  0
  -47.2060   16.3310  -33.9170 O   0  0  0  0  0  0  0  0  0  0  0  0
  -46.2910   16.1150  -33.7370 H   0  0  0  0  0  0  0  0  0  0  0  0
  1  2  1  0
  2  3  2  0
  3  9  1  0
  4  6  2  0
  5  4  1  0
  5  1  2  0
  6  3  1  0
  7 12  1  0
  7 10  1  0
  8 10  2  0
  9 11  1  0
  9  7  2  0
 11  8  1  0
 13  5  1  0
 14 15  2  0
 14 16  1  0
 16 13  1  0
 17 16  1  0
 18 22  2  0
 18 21  1  0
 19 23  1  0
 19 14  1  0
 20 21  1  0
 20 24  1  0
 21 19  1  0
 24 25  1  0
 24 23  1  0
 26 25  1  0
 27 31  1  0
 27 18  1  0
 31 29  1  6
 31 30  1  0
 31 28  1  0
 32 35  1  0
 32 27  1  0
 33 32  1  0
 34 33  2  0
 36 37  1  1
 36 33  1  0
 38 39  1  0
 38 36  1  0
 39 36  1  0
 40  1  1  0
 40 43  1  0
 41 42  2  0
 43 41  1  0
 44 45  2  0
 45 42  1  0
 46 44  1  0
 46 43  2  0
 47 44  1  0
 48 47  1  0
 49 51  1  0
 50 51  1  0
 51 47  1  0
 52 50  1  0
 52 49  1  0
 53 54  1  0
 53 58  1  0
 53 52  1  0
 55 56  1  0
 55 54  1  0
 56 57  1  0
 57 58  1  0
 59 56  1  0
 60 59  1  0
 61 60  2  0
 62 63  2  0
 62 61  1  0
 63 64  1  0
 64 65  1  0
 64 59  2  0
 65 66  1  0
 67 65  1  0
 68 61  1  0
 68 73  1  0
 69 68  2  0
 70 69  1  0
 70 71  2  0
 71 72  1  0
 72 73  2  0
 74 75  1  0
 74 69  1  0
M  ISO  4  40 101  43 101  52 100  53 100
M  END
>  <TORSDO>  (124) 
F 16

>  <SCORE>  (124) 
-14.420

>  <name>  (124) 
123

>  <ligand_id>  (124) 
123

>  <original_smiles>  (124) 
[H]Oc1c([H])c([H])c([H])c([H])c1-c1nnc(N([H])[H])c(N2C([H])([H])C([H])([H])N(C3([H])C([H])([H])C([H])(N([H])c4nc([H])c([H])c(Oc5c([H])c(-c6sc([H])nc6C([H])([H])[H])c([H])c([H])c5C([H])([H])N([H])C(=O)C5([H])N(C(=O)C([H])(N([H])C(=O)C6(F)C([H])([H])C6([H])[H])C(C([H])([H])[H])(C([H])([H])[H])C([H])([H])[H])C([H])([H])C([H])(O[H])C5([H])[H])n4)C3([H])[H])C([H])([H])C2([H])[H])c1[H]

>  <smiles>  (124) 
[H]Oc1c([H])c([H])c([H])c([H])c1-c1nnc(N([H])[H])c(N2C([H])([H])C([H])([H])N(C3([H])C([H])([H])C([H])(N([H])c4nc([H])c([H])c(Oc5c([H])c(-c6sc([H])nc6C([H])([H])[H])c([H])c([H])c5C([H])([H])N([H])C(=O)C5([H])N(C(=O)C([H])(N([H])C(=O)C6(F)C([H])([H])C6([H])[H])C(C([H])([H])[H])(C([H])([H])[H])C([H])([H])[H])C([H])([H])C([H])(O[H])C5([H])[H])n4)C3([H])[H])C([H])([H])C2([H])[H])c1[H]

$$$$
124:0:0
     RDKit          3D

 76 84  0  0  1  0  0  0  0  0999 V2000
  -37.3780   13.4910  -23.6980 C   0  0  0  0  0  0  0  0  0  0  0  0
  -36.6850   13.4250  -22.4700 C   0  0  0  0  0  3  0  0  0  0  0  0
  -35.4200   12.8080  -22.3780 C   0  0  0  0  0  0  0  0  0  0  0  0
  -35.5440   12.3050  -24.7690 C   0  0  0  0  0  3  0  0  0  0  0  0
  -36.8250   12.8960  -24.8610 C   0  0  0  0  0  0  0  0  0  0  0  0
  -34.8490   12.2710  -23.5490 C   0  0  0  0  0  3  0  0  0  0  0  0
  -35.1900   12.2570  -19.8710 C   0  0  0  0  0  0  0  0  0  0  0  0
  -33.0190   12.6260  -19.3390 C   0  0  0  0  0  3  0  0  0  0  0  0
  -34.7230   12.6880  -21.0970 C   0  0  0  0  0  0  0  0  0  0  0  0
  -34.2060   12.2260  -18.8800 N   0  0  0  0  0  0  0  0  0  0  0  0
  -33.0220   13.0920  -21.0280 S   0  0  0  0  0  0  0  0  0  0  0  0
  -36.5700   11.8070  -19.5050 C   0  0  0  0  0  1  0  0  0  0  0  0
  -37.6090   12.7970  -26.1780 C   0  0  0  0  0  2  0  0  0  0  0  0
  -36.2450   13.6720  -28.0810 C   0  0  0  0  0  0  0  0  0  0  0  0
  -36.5120   14.8600  -27.8990 O   0  0  0  0  0  0  0  0  0  0  0  0
  -36.7660   12.6740  -27.3600 N   0  0  0  0  0  0  0  0  0  0  0  0
  -36.4960   11.7340  -27.6140 H   0  0  0  0  0  0  0  0  0  0  0  0
  -36.2010   14.4330  -31.1030 C   0  0  0  0  0  0  0  0  0  0  0  0
  -35.2070   13.2480  -29.1340 C   0  0  0  0  0  3  0  0  0  0  0  0
  -33.7410   14.4780  -30.6080 C   0  0  0  0  0  2  0  0  0  0  0  0
  -35.1360   14.1240  -30.3190 N   0  0  0  0  0  0  0  0  0  0  0  0
  -37.3240   13.9600  -30.8890 O   0  0  0  0  0  0  0  0  0  0  0  0
  -33.8030   13.2900  -28.5060 C   0  0  0  0  0  2  0  0  0  0  0  0
  -32.8820   13.6510  -29.6520 C   0  0  0  0  0  3  0  0  0  0  0  0
  -32.4540   12.4810  -30.3320 O   0  0  0  0  0  0  0  0  0  0  0  0
  -33.2230   12.0150  -30.6450 H   0  0  0  0  0  0  0  0  0  0  0  0
  -36.0210   15.3600  -32.3350 C   0  0  0  0  0  3  0  0  0  0  0  0
  -35.8530   17.4630  -30.8410 C   0  0  0  0  0  1  0  0  0  0  0  0
  -36.0900   17.7050  -33.3010 C   0  0  0  0  0  1  0  0  0  0  0  0
  -38.0400   16.9420  -31.9280 C   0  0  0  0  0  1  0  0  0  0  0  0
  -36.5090   16.8360  -32.0950 C   0  0  1  0  0  0  0  0  0  0  0  0
  -36.7570   14.7470  -33.4540 N   0  0  0  0  0  0  0  0  0  0  0  0
  -36.2280   14.2110  -34.5640 C   0  0  0  0  0  0  0  0  0  0  0  0
  -35.0170   14.2500  -34.7960 O   0  0  0  0  0  0  0  0  0  0  0  0
  -37.7510   14.6140  -33.3230 H   0  0  0  0  0  0  0  0  0  0  0  0
  -37.2050   13.5580  -35.5040 C   0  0  1  0  0  0  0  0  0  0  0  0
  -38.4790   13.4110  -34.9770 F   0  0  0  0  0  0  0  0  0  0  0  0
  -37.1060   13.8340  -36.9870 C   0  0  0  0  0  2  0  0  0  0  0  0
  -36.7310   12.4720  -36.4460 C   0  0  0  0  0  2  0  0  0  0  0  0
  -38.5750   14.1590  -23.7190 O   0  0  0  0  0  0  0  0  0  0  0  0
  -39.8580   15.9330  -24.8030 C   0  0  0  0  0  0  0  0  0  0  0  0
  -41.0020   15.5920  -24.1840 C   0  0  0  0  0  2  0  0  0  0  0  0
  -37.6890   16.5170  -23.8150 C   0  0  0  0  0  2  0  0  0  0  0  0
  -37.4060   17.5250  -24.9400 C   0  0  0  0  0  2  0  0  0  0  0  0
  -39.7860   16.9190  -25.9500 C   0  0  0  0  0  3  0  0  0  0  0  0
  -38.5000   15.3840  -24.4400 C   0  0  0  0  0  3  0  0  0  0  0  0
  -38.6690   18.0080  -25.7090 C   0  0  0  0  0  3  0  0  0  0  0  0
  -39.6980   16.1030  -27.2630 C   0  0  0  0  0  1  0  0  0  0  0  0
  -36.9980   19.5930  -27.0880 C   0  0  0  0  0  2  0  0  0  0  0  0
  -37.7010   20.2340  -28.2870 C   0  0  0  0  0  2  0  0  0  0  0  0
  -38.2330   18.6910  -27.0100 C   0  0  0  0  0  3  0  0  0  0  0  0
  -39.0620   19.8330  -27.6460 C   0  0  1  0  0  0  0  0  0  0  0  0
  -39.5800   20.9430  -26.6950 C   0  0  0  0  0  1  0  0  0  0  0  0
  -40.1850   19.3310  -28.4990 N   0  0  0  0  0  0  0  0  0  0  0  0
  -39.9760   19.5020  -29.9450 C   0  0  0  0  0  2  0  0  0  0  0  0
  -41.2690   19.4960  -30.7970 C   0  0  0  0  0  2  0  0  0  0  0  0
  -42.2790   18.6040  -30.2400 N   0  0  0  0  0  0  0  0  0  0  0  0
  -42.5950   18.7290  -28.8220 C   0  0  0  0  0  2  0  0  0  0  0  0
  -41.5670   19.6000  -28.0670 C   0  0  0  0  0  2  0  0  0  0  0  0
  -43.2150   18.0160  -31.1090 C   0  0  0  0  0  0  0  0  0  0  0  0
  -44.5150   18.5320  -31.2920 C   0  0  0  0  0  3  0  0  0  0  0  0
  -45.4020   17.8650  -32.1790 C   0  0  0  0  0  0  0  0  0  0  0  0
  -44.9800   16.7430  -32.8310 N   0  0  0  0  0  0  0  0  0  0  0  0
  -43.7570   16.2330  -32.6570 N   0  0  0  0  0  0  0  0  0  0  0  0
  -42.8920   16.8430  -31.8250 C   0  0  0  0  0  0  0  0  0  0  0  0
  -41.6590   16.2370  -31.6600 N   0  0  0  0  0  0  0  0  0  0  0  0
  -41.1780   16.5880  -30.8410 H   0  0  0  0  0  0  0  0  0  0  0  0
  -41.6450   15.2320  -31.7550 H   0  0  0  0  0  0  0  0  0  0  0  0
  -46.8120   18.3130  -32.4460 C   0  0  0  0  0  0  0  0  0  0  0  0
  -47.7470   17.6040  -33.2710 C   0  0  0  0  0  0  0  0  0  0  0  0
  -49.0600   18.0770  -33.4600 C   0  0  0  0  0  3  0  0  0  0  0  0
  -49.4930   19.2590  -32.8440 C   0  0  0  0  0  3  0  0  0  0  0  0
  -48.6010   19.9800  -32.0390 C   0  0  0  0  0  3  0  0  0  0  0  0
  -47.2870   19.5120  -31.8490 C   0  0  0  0  0  3  0  0  0  0  0  0
  -47.4390   16.4410  -33.9200 O   0  0  0  0  0  0  0  0  0  0  0  0
  -46.5270   16.1990  -33.7570 H   0  0  0  0  0  0  0  0  0  0  0  0
  1  2  1  0
  2  3  2  0
  3  9  1  0
  4  6  2  0
  5  4  1  0
  5  1  2  0
  6  3  1  0
  7 12  1  0
  7 10  1  0
  8 10  2  0
  9 11  1  0
  9  7  2  0
 11  8  1  0
 13  5  1  0
 14 15  2  0
 14 16  1  0
 16 13  1  0
 17 16  1  0
 18 22  2  0
 18 21  1  0
 19 23  1  0
 19 14  1  0
 20 21  1  0
 20 24  1  0
 21 19  1  0
 24 25  1  0
 24 23  1  0
 26 25  1  0
 27 31  1  0
 27 18  1  0
 31 29  1  6
 31 30  1  0
 31 28  1  0
 32 35  1  0
 32 27  1  0
 33 32  1  0
 34 33  2  0
 36 37  1  1
 36 33  1  0
 38 39  1  0
 38 36  1  0
 39 36  1  0
 40  1  1  0
 41 46  1  0
 41 42  2  0
 44 43  1  0
 45 48  1  0
 45 47  1  0
 45 41  1  0
 46 43  1  0
 46 40  1  0
 47 44  1  0
 50 52  1  0
 50 49  1  0
 51 49  1  0
 51 47  1  0
 52 51  1  0
 52 53  1  1
 54 55  1  0
 54 59  1  0
 54 52  1  0
 56 57  1  0
 56 55  1  0
 57 58  1  0
 58 59  1  0
 60 57  1  0
 61 60  1  0
 62 61  2  0
 63 64  2  0
 63 62  1  0
 64 65  1  0
 65 66  1  0
 65 60  2  0
 66 67  1  0
 68 66  1  0
 69 62  1  0
 69 74  1  0
 70 69  2  0
 71 70  1  0
 71 72  2  0
 72 73  1  0
 73 74  2  0
 75 76  1  0
 75 70  1  0
M  ISO  4  40 101  46 101  52 100  54 100
M  END
>  <TORSDO>  (125) 
F 16

>  <SCORE>  (125) 
-14.679

>  <name>  (125) 
124

>  <ligand_id>  (125) 
124

>  <original_smiles>  (125) 
[H]Oc1c([H])c([H])c([H])c([H])c1-c1nnc(N([H])[H])c(N2C([H])([H])C([H])([H])N(C3(C([H])([H])[H])C([H])([H])C([H])([H])C3([H])C3([H])C([H])([H])C([H])([H])C([H])(Oc4c([H])c(-c5sc([H])nc5C([H])([H])[H])c([H])c([H])c4C([H])([H])N([H])C(=O)C4([H])N(C(=O)C([H])(N([H])C(=O)C5(F)C([H])([H])C5([H])[H])C(C([H])([H])[H])(C([H])([H])[H])C([H])([H])[H])C([H])([H])C([H])(O[H])C4([H])[H])C(=C([H])[H])C3([H])C([H])([H])[H])C([H])([H])C2([H])[H])c1[H]

>  <smiles>  (125) 
[H]Oc1c([H])c([H])c([H])c([H])c1-c1nnc(N([H])[H])c(N2C([H])([H])C([H])([H])N(C3(C([H])([H])[H])C([H])([H])C([H])([H])C3([H])C3([H])C([H])([H])C([H])([H])C([H])(Oc4c([H])c(-c5sc([H])nc5C([H])([H])[H])c([H])c([H])c4C([H])([H])N([H])C(=O)C4([H])N(C(=O)C([H])(N([H])C(=O)C5(F)C([H])([H])C5([H])[H])C(C([H])([H])[H])(C([H])([H])[H])C([H])([H])[H])C([H])([H])C([H])(O[H])C4([H])[H])C(=C([H])[H])C3([H])C([H])([H])[H])C([H])([H])C2([H])[H])c1[H]

$$$$
125:0:0
     RDKit          3D

 77 85  0  0  1  0  0  0  0  0999 V2000
  -37.3930   13.4860  -23.7040 C   0  0  0  0  0  0  0  0  0  0  0  0
  -36.6860   13.3940  -22.4800 C   0  0  0  0  0  3  0  0  0  0  0  0
  -35.4300   12.7610  -22.4010 C   0  0  0  0  0  0  0  0  0  0  0  0
  -35.5500   12.3150  -24.8010 C   0  0  0  0  0  3  0  0  0  0  0  0
  -36.8180   12.9370  -24.8750 C   0  0  0  0  0  0  0  0  0  0  0  0
  -34.8650   12.2320  -23.5780 C   0  0  0  0  0  3  0  0  0  0  0  0
  -35.2330   12.1690  -19.9000 C   0  0  0  0  0  0  0  0  0  0  0  0
  -33.0620   12.4990  -19.3440 C   0  0  0  0  0  3  0  0  0  0  0  0
  -34.7460   12.6070  -21.1170 C   0  0  0  0  0  0  0  0  0  0  0  0
  -34.2600   12.1120  -18.9010 N   0  0  0  0  0  0  0  0  0  0  0  0
  -33.0410   12.9850  -21.0260 S   0  0  0  0  0  0  0  0  0  0  0  0
  -36.6240   11.7370  -19.5540 C   0  0  0  0  0  1  0  0  0  0  0  0
  -37.5930   12.9780  -26.1930 C   0  0  0  0  0  2  0  0  0  0  0  0
  -36.2190   13.7170  -28.1200 C   0  0  0  0  0  0  0  0  0  0  0  0
  -36.4730   14.9150  -27.9640 O   0  0  0  0  0  0  0  0  0  0  0  0
  -36.7630   12.7540  -27.3740 N   0  0  0  0  0  0  0  0  0  0  0  0
  -36.5230   11.7950  -27.5850 H   0  0  0  0  0  0  0  0  0  0  0  0
  -36.1600   14.4450  -31.1430 C   0  0  0  0  0  0  0  0  0  0  0  0
  -35.1810   13.2660  -29.1620 C   0  0  0  0  0  3  0  0  0  0  0  0
  -33.7020   14.4810  -30.6370 C   0  0  0  0  0  2  0  0  0  0  0  0
  -35.1010   14.1330  -30.3530 N   0  0  0  0  0  0  0  0  0  0  0  0
  -37.2870   13.9810  -30.9290 O   0  0  0  0  0  0  0  0  0  0  0  0
  -33.7790   13.3030  -28.5300 C   0  0  0  0  0  2  0  0  0  0  0  0
  -32.8520   13.6560  -29.6740 C   0  0  0  0  0  3  0  0  0  0  0  0
  -32.4240   12.4820  -30.3480 O   0  0  0  0  0  0  0  0  0  0  0  0
  -33.1930   12.0180  -30.6630 H   0  0  0  0  0  0  0  0  0  0  0  0
  -35.9730   15.3660  -32.3770 C   0  0  0  0  0  3  0  0  0  0  0  0
  -35.7790   17.4660  -30.8820 C   0  0  0  0  0  1  0  0  0  0  0  0
  -35.9960   17.7120  -33.3420 C   0  0  0  0  0  1  0  0  0  0  0  0
  -37.9660   16.9810  -31.9840 C   0  0  0  0  0  1  0  0  0  0  0  0
  -36.4370   16.8500  -32.1400 C   0  0  1  0  0  0  0  0  0  0  0  0
  -36.7240   14.7610  -33.4890 N   0  0  0  0  0  0  0  0  0  0  0  0
  -36.2100   14.2300  -34.6080 C   0  0  0  0  0  0  0  0  0  0  0  0
  -35.0010   14.2660  -34.8540 O   0  0  0  0  0  0  0  0  0  0  0  0
  -37.7170   14.6320  -33.3480 H   0  0  0  0  0  0  0  0  0  0  0  0
  -37.2010   13.5850  -35.5400 C   0  0  1  0  0  0  0  0  0  0  0  0
  -38.4630   13.4230  -34.9910 F   0  0  0  0  0  0  0  0  0  0  0  0
  -37.1320   13.8850  -37.0200 C   0  0  0  0  0  2  0  0  0  0  0  0
  -36.7390   12.5170  -36.5060 C   0  0  0  0  0  2  0  0  0  0  0  0
  -38.6410   14.0610  -23.8160 O   0  0  0  0  0  0  0  0  0  0  0  0
  -39.3270   14.5290  -22.6480 C   0  0  0  0  0  2  0  0  0  0  0  0
  -38.4470   18.6160  -25.4740 C   0  0  0  0  0  3  0  0  0  0  0  0
  -39.0720   19.5440  -26.2420 C   0  0  0  0  0  0  0  0  0  0  0  0
  -38.8830   18.9560  -24.1670 C   0  0  0  0  0  0  0  0  0  0  0  0
  -39.9130   16.8210  -21.5790 C   0  0  0  0  0  2  0  0  0  0  0  0
  -39.4240   18.2480  -21.8580 C   0  0  0  0  0  2  0  0  0  0  0  0
  -38.3630   16.7570  -23.3860 C   0  0  0  0  0  2  0  0  0  0  0  0
  -38.8360   15.9260  -22.2030 C   0  0  0  0  0  3  0  0  0  0  0  0
  -40.3980   21.6980  -25.7210 C   0  0  0  0  0  1  0  0  0  0  0  0
  -39.5970   20.0720  -24.1190 N   0  0  0  0  0  0  0  0  0  0  0  0
  -39.7030   20.4620  -25.4150 N   0  0  0  0  0  0  0  0  0  0  0  0
  -38.5870   18.1570  -23.0520 N   0  0  0  0  0  0  0  0  0  0  0  0
  -40.0840   19.4410  -28.4760 N   0  0  0  0  0  0  0  0  0  0  0  0
  -39.8970   19.4780  -29.9360 C   0  0  0  0  0  2  0  0  0  0  0  0
  -41.1960   19.5400  -30.7530 C   0  0  0  0  0  2  0  0  0  0  0  0
  -42.1830   18.6400  -30.1820 N   0  0  0  0  0  0  0  0  0  0  0  0
  -42.5490   18.8330  -28.7880 C   0  0  0  0  0  2  0  0  0  0  0  0
  -41.4650   19.5740  -27.9690 C   0  0  0  0  0  2  0  0  0  0  0  0
  -38.9640   19.5310  -27.7160 C   0  0  0  0  0  0  0  0  0  0  0  0
  -37.8300   19.4930  -28.2080 O   0  0  0  0  0  0  0  0  0  0  0  0
  -43.1090   18.0390  -31.0620 C   0  0  0  0  0  0  0  0  0  0  0  0
  -44.4080   18.5470  -31.2730 C   0  0  0  0  0  3  0  0  0  0  0  0
  -45.2790   17.8640  -32.1650 C   0  0  0  0  0  0  0  0  0  0  0  0
  -44.8430   16.7360  -32.7970 N   0  0  0  0  0  0  0  0  0  0  0  0
  -43.6200   16.2350  -32.6000 N   0  0  0  0  0  0  0  0  0  0  0  0
  -42.7700   16.8610  -31.7620 C   0  0  0  0  0  0  0  0  0  0  0  0
  -41.5370   16.2620  -31.5750 N   0  0  0  0  0  0  0  0  0  0  0  0
  -41.0700   16.6130  -30.7480 H   0  0  0  0  0  0  0  0  0  0  0  0
  -41.5130   15.2570  -31.6750 H   0  0  0  0  0  0  0  0  0  0  0  0
  -46.6880   18.3000  -32.4580 C   0  0  0  0  0  0  0  0  0  0  0  0
  -47.5990   17.5880  -33.3080 C   0  0  0  0  0  0  0  0  0  0  0  0
  -48.9140   18.0490  -33.5200 C   0  0  0  0  0  3  0  0  0  0  0  0
  -49.3700   19.2230  -32.9060 C   0  0  0  0  0  3  0  0  0  0  0  0
  -48.5020   19.9460  -32.0770 C   0  0  0  0  0  3  0  0  0  0  0  0
  -47.1880   19.4890  -31.8640 C   0  0  0  0  0  3  0  0  0  0  0  0
  -47.2670   16.4330  -33.9600 O   0  0  0  0  0  0  0  0  0  0  0  0
  -46.3560   16.1980  -33.7800 H   0  0  0  0  0  0  0  0  0  0  0  0
  1  2  1  0
  2  3  2  0
  3  9  1  0
  4  6  2  0
  5  4  1  0
  5  1  2  0
  6  3  1  0
  7 12  1  0
  7 10  1  0
  8 10  2  0
  9 11  1  0
  9  7  2  0
 11  8  1  0
 13  5  1  0
 14 15  2  0
 14 16  1  0
 16 13  1  0
 17 16  1  0
 18 22  2  0
 18 21  1  0
 19 23  1  0
 19 14  1  0
 20 21  1  0
 20 24  1  0
 21 19  1  0
 24 25  1  0
 24 23  1  0
 26 25  1  0
 27 31  1  0
 27 18  1  0
 31 29  1  6
 31 30  1  0
 31 28  1  0
 32 35  1  0
 32 27  1  0
 33 32  1  0
 34 33  2  0
 36 37  1  1
 36 33  1  0
 38 39  1  0
 38 36  1  0
 39 36  1  0
 40  1  1  0
 40 41  1  0
 42 44  1  0
 43 42  2  0
 43 51  1  0
 44 50  2  0
 44 52  1  0
 46 45  1  0
 47 52  1  0
 47 48  1  0
 48 41  1  0
 48 45  1  0
 49 51  1  0
 51 50  1  0
 52 46  1  0
 53 58  1  0
 53 59  1  0
 54 53  1  0
 55 56  1  0
 55 54  1  0
 56 57  1  0
 57 58  1  0
 59 43  1  0
 60 59  2  0
 61 56  1  0
 62 61  1  0
 63 62  2  0
 64 65  2  0
 64 63  1  0
 65 66  1  0
 66 67  1  0
 66 61  2  0
 67 68  1  0
 69 67  1  0
 70 63  1  0
 70 75  1  0
 71 70  2  0
 72 71  1  0
 72 73  2  0
 73 74  1  0
 74 75  2  0
 76 77  1  0
 76 71  1  0
M  ISO  4  40 101  41 101  53 100  59 100
M  END
>  <TORSDO>  (126) 
F 16

>  <SCORE>  (126) 
-14.510

>  <name>  (126) 
125

>  <ligand_id>  (126) 
125

>  <original_smiles>  (126) 
[H]Oc1c([H])c([H])c([H])c([H])c1-c1nnc(N([H])[H])c(N2C([H])([H])C([H])([H])N(C(=O)c3c([H])c(N4C([H])([H])C([H])([H])C([H])(C([H])([H])Oc5c([H])c(-c6sc([H])nc6C([H])([H])[H])c([H])c([H])c5C([H])([H])N([H])C(=O)C5([H])N(C(=O)C([H])(N([H])C(=O)C6(F)C([H])([H])C6([H])[H])C(C([H])([H])[H])(C([H])([H])[H])C([H])([H])[H])C([H])([H])C([H])(O[H])C5([H])[H])C4([H])[H])nn3C([H])([H])[H])C([H])([H])C2([H])[H])c1[H]

>  <smiles>  (126) 
[H]Oc1c([H])c([H])c([H])c([H])c1-c1nnc(N([H])[H])c(N2C([H])([H])C([H])([H])N(C(=O)c3c([H])c(N4C([H])([H])C([H])([H])C([H])(C([H])([H])Oc5c([H])c(-c6sc([H])nc6C([H])([H])[H])c([H])c([H])c5C([H])([H])N([H])C(=O)C5([H])N(C(=O)C([H])(N([H])C(=O)C6(F)C([H])([H])C6([H])[H])C(C([H])([H])[H])(C([H])([H])[H])C([H])([H])[H])C([H])([H])C([H])(O[H])C5([H])[H])C4([H])[H])nn3C([H])([H])[H])C([H])([H])C2([H])[H])c1[H]

$$$$
126:0:0
     RDKit          3D

 74 81  0  0  1  0  0  0  0  0999 V2000
  -37.3800   13.5600  -23.7660 C   0  0  0  0  0  0  0  0  0  0  0  0
  -36.7090   13.4920  -22.5200 C   0  0  0  0  0  3  0  0  0  0  0  0
  -35.4530   12.8490  -22.4020 C   0  0  0  0  0  0  0  0  0  0  0  0
  -35.5540   12.3200  -24.7910 C   0  0  0  0  0  3  0  0  0  0  0  0
  -36.8200   12.9360  -24.8990 C   0  0  0  0  0  0  0  0  0  0  0  0
  -34.8750   12.2880  -23.5610 C   0  0  0  0  0  3  0  0  0  0  0  0
  -35.2210   12.2750  -19.8960 C   0  0  0  0  0  0  0  0  0  0  0  0
  -33.0550   12.6610  -19.3520 C   0  0  0  0  0  3  0  0  0  0  0  0
  -34.7590   12.7250  -21.1160 C   0  0  0  0  0  0  0  0  0  0  0  0
  -34.2390   12.2440  -18.9010 N   0  0  0  0  0  0  0  0  0  0  0  0
  -33.0590   13.1420  -21.0370 S   0  0  0  0  0  0  0  0  0  0  0  0
  -36.5970   11.8050  -19.5430 C   0  0  0  0  0  1  0  0  0  0  0  0
  -37.5950   12.9230  -26.2140 C   0  0  0  0  0  2  0  0  0  0  0  0
  -36.2090   13.7080  -28.1060 C   0  0  0  0  0  0  0  0  0  0  0  0
  -36.4720   14.9010  -27.9330 O   0  0  0  0  0  0  0  0  0  0  0  0
  -36.7520   12.7270  -27.3840 N   0  0  0  0  0  0  0  0  0  0  0  0
  -36.5010   11.7740  -27.6090 H   0  0  0  0  0  0  0  0  0  0  0  0
  -36.1520   14.4460  -31.1240 C   0  0  0  0  0  0  0  0  0  0  0  0
  -35.1650   13.2720  -29.1460 C   0  0  0  0  0  3  0  0  0  0  0  0
  -33.6940   14.5010  -30.6150 C   0  0  0  0  0  2  0  0  0  0  0  0
  -35.0900   14.1420  -30.3340 N   0  0  0  0  0  0  0  0  0  0  0  0
  -37.2760   13.9720  -30.9110 O   0  0  0  0  0  0  0  0  0  0  0  0
  -33.7670   13.3170  -28.5110 C   0  0  0  0  0  2  0  0  0  0  0  0
  -32.8400   13.6780  -29.6530 C   0  0  0  0  0  3  0  0  0  0  0  0
  -32.4060   12.5070  -30.3270 O   0  0  0  0  0  0  0  0  0  0  0  0
  -33.1710   12.0470  -30.6580 H   0  0  0  0  0  0  0  0  0  0  0  0
  -35.9710   15.3710  -32.3550 C   0  0  0  0  0  3  0  0  0  0  0  0
  -35.7560   17.4670  -30.8560 C   0  0  0  0  0  1  0  0  0  0  0  0
  -36.0070   17.7190  -33.3130 C   0  0  0  0  0  1  0  0  0  0  0  0
  -37.9590   16.9870  -31.9290 C   0  0  0  0  0  1  0  0  0  0  0  0
  -36.4310   16.8550  -32.1070 C   0  0  1  0  0  0  0  0  0  0  0  0
  -36.7300   14.7730  -33.4660 N   0  0  0  0  0  0  0  0  0  0  0  0
  -36.2210   14.2310  -34.5820 C   0  0  0  0  0  0  0  0  0  0  0  0
  -35.0120   14.2500  -34.8270 O   0  0  0  0  0  0  0  0  0  0  0  0
  -37.7240   14.6550  -33.3240 H   0  0  0  0  0  0  0  0  0  0  0  0
  -37.2200   13.5940  -35.5120 C   0  0  1  0  0  0  0  0  0  0  0  0
  -38.4880   13.4630  -34.9690 F   0  0  0  0  0  0  0  0  0  0  0  0
  -37.1350   13.8750  -36.9940 C   0  0  0  0  0  2  0  0  0  0  0  0
  -36.7740   12.5060  -36.4630 C   0  0  0  0  0  2  0  0  0  0  0  0
  -38.5510   14.2680  -23.9130 O   0  0  0  0  0  0  0  0  0  0  0  0
  -38.3450   15.6970  -23.9500 C   0  0  0  0  0  2  0  0  0  0  0  0
  -38.7110   16.4250  -25.2600 C   0  0  0  0  0  0  0  0  0  0  0  0
  -39.6210   18.1020  -27.4230 C   0  0  0  0  0  0  0  0  0  0  0  0
  -39.8930   16.1180  -25.9660 C   0  0  0  0  0  0  0  0  0  0  0  0
  -37.9390   17.5240  -25.7120 C   0  0  0  0  0  0  0  0  0  0  0  0
  -40.3330   16.9320  -27.0350 C   0  0  0  0  0  0  0  0  0  0  0  0
  -38.3840   18.3460  -26.7790 C   0  0  0  0  0  0  0  0  0  0  0  0
  -40.6540   15.0630  -25.5840 F   0  0  0  0  0  0  0  0  0  0  0  0
  -36.7860   17.8460  -25.0760 F   0  0  0  0  0  0  0  0  0  0  0  0
  -41.4880   16.5890  -27.6520 F   0  0  0  0  0  0  0  0  0  0  0  0
  -37.6490   19.4320  -27.1240 F   0  0  0  0  0  0  0  0  0  0  0  0
  -40.1880   19.0940  -28.2740 N   0  0  0  0  0  0  0  0  0  0  0  0
  -39.8080   19.3150  -29.6800 C   0  0  0  0  0  2  0  0  0  0  0  0
  -41.0400   19.3940  -30.6430 C   0  0  0  0  0  2  0  0  0  0  0  0
  -42.1860   18.6520  -30.1080 N   0  0  0  0  0  0  0  0  0  0  0  0
  -42.6420   19.0130  -28.7670 C   0  0  0  0  0  2  0  0  0  0  0  0
  -41.5060   19.5910  -27.8850 C   0  0  0  0  0  2  0  0  0  0  0  0
  -43.1000   18.0480  -31.0030 C   0  0  0  0  0  0  0  0  0  0  0  0
  -44.3990   18.5540  -31.2210 C   0  0  0  0  0  3  0  0  0  0  0  0
  -45.2730   17.8670  -32.1080 C   0  0  0  0  0  0  0  0  0  0  0  0
  -44.8390   16.7340  -32.7310 N   0  0  0  0  0  0  0  0  0  0  0  0
  -43.6190   16.2310  -32.5250 N   0  0  0  0  0  0  0  0  0  0  0  0
  -42.7670   16.8590  -31.6900 C   0  0  0  0  0  0  0  0  0  0  0  0
  -41.5440   16.2460  -31.4860 N   0  0  0  0  0  0  0  0  0  0  0  0
  -41.0960   16.6030  -30.6500 H   0  0  0  0  0  0  0  0  0  0  0  0
  -41.5480   15.2390  -31.5550 H   0  0  0  0  0  0  0  0  0  0  0  0
  -46.6800   18.3090  -32.4050 C   0  0  0  0  0  0  0  0  0  0  0  0
  -47.6020   17.5860  -33.2320 C   0  0  0  0  0  0  0  0  0  0  0  0
  -48.9140   18.0550  -33.4480 C   0  0  0  0  0  3  0  0  0  0  0  0
  -49.3560   19.2480  -32.8600 C   0  0  0  0  0  3  0  0  0  0  0  0
  -48.4760   19.9820  -32.0540 C   0  0  0  0  0  3  0  0  0  0  0  0
  -47.1650   19.5170  -31.8370 C   0  0  0  0  0  3  0  0  0  0  0  0
  -47.2860   16.4120  -33.8550 O   0  0  0  0  0  0  0  0  0  0  0  0
  -46.3770   16.1700  -33.6750 H   0  0  0  0  0  0  0  0  0  0  0  0
  1  2  1  0
  2  3  2  0
  3  9  1  0
  4  6  2  0
  5  4  1  0
  5  1  2  0
  6  3  1  0
  7 12  1  0
  7 10  1  0
  8 10  2  0
  9 11  1  0
  9  7  2  0
 11  8  1  0
 13  5  1  0
 14 15  2  0
 14 16  1  0
 16 13  1  0
 17 16  1  0
 18 22  2  0
 18 21  1  0
 19 23  1  0
 19 14  1  0
 20 21  1  0
 20 24  1  0
 21 19  1  0
 24 25  1  0
 24 23  1  0
 26 25  1  0
 27 31  1  0
 27 18  1  0
 31 29  1  6
 31 30  1  0
 31 28  1  0
 32 35  1  0
 32 27  1  0
 33 32  1  0
 34 33  2  0
 36 37  1  1
 36 33  1  0
 38 39  1  0
 38 36  1  0
 39 36  1  0
 40  1  1  0
 41 40  1  0
 42 41  1  0
 43 46  2  0
 43 47  1  0
 44 48  1  0
 44 42  2  0
 45 42  1  0
 45 49  1  0
 46 44  1  0
 47 45  2  0
 50 46  1  0
 51 47  1  0
 52 57  1  0
 52 43  1  0
 53 52  1  0
 54 55  1  0
 54 53  1  0
 55 56  1  0
 56 57  1  0
 58 55  1  0
 59 58  1  0
 60 59  2  0
 61 62  2  0
 61 60  1  0
 62 63  1  0
 63 64  1  0
 63 58  2  0
 64 65  1  0
 66 64  1  0
 67 60  1  0
 67 72  1  0
 68 67  2  0
 69 68  1  0
 69 70  2  0
 70 71  1  0
 71 72  2  0
 73 74  1  0
 73 68  1  0
M  ISO  4  40 101  41 101  43 100  52 100
M  END
>  <TORSDO>  (127) 
F 16

>  <SCORE>  (127) 
-14.583

>  <name>  (127) 
126

>  <ligand_id>  (127) 
126

>  <original_smiles>  (127) 
[H]Oc1c([H])c([H])c([H])c([H])c1-c1nnc(N([H])[H])c(N2C([H])([H])C([H])([H])N(c3c(F)c(F)c(C([H])([H])Oc4c([H])c(-c5sc([H])nc5C([H])([H])[H])c([H])c([H])c4C([H])([H])N([H])C(=O)C4([H])N(C(=O)C([H])(N([H])C(=O)C5(F)C([H])([H])C5([H])[H])C(C([H])([H])[H])(C([H])([H])[H])C([H])([H])[H])C([H])([H])C([H])(O[H])C4([H])[H])c(F)c3F)C([H])([H])C2([H])[H])c1[H]

>  <smiles>  (127) 
[H]Oc1c([H])c([H])c([H])c([H])c1-c1nnc(N([H])[H])c(N2C([H])([H])C([H])([H])N(c3c(F)c(F)c(C([H])([H])Oc4c([H])c(-c5sc([H])nc5C([H])([H])[H])c([H])c([H])c4C([H])([H])N([H])C(=O)C4([H])N(C(=O)C([H])(N([H])C(=O)C5(F)C([H])([H])C5([H])[H])C(C([H])([H])[H])(C([H])([H])[H])C([H])([H])[H])C([H])([H])C([H])(O[H])C4([H])[H])c(F)c3F)C([H])([H])C2([H])[H])c1[H]

$$$$
127:0:0
     RDKit          3D

 70 77  0  0  1  0  0  0  0  0999 V2000
  -37.3890   13.6650  -23.8510 C   0  0  0  0  0  0  0  0  0  0  0  0
  -36.7390   13.5860  -22.5800 C   0  0  0  0  0  3  0  0  0  0  0  0
  -35.4810   12.9270  -22.4170 C   0  0  0  0  0  0  0  0  0  0  0  0
  -35.5400   12.3520  -24.7880 C   0  0  0  0  0  3  0  0  0  0  0  0
  -36.7990   12.9760  -24.9350 C   0  0  0  0  0  0  0  0  0  0  0  0
  -34.8820   12.3450  -23.5510 C   0  0  0  0  0  3  0  0  0  0  0  0
  -35.2270   12.3310  -19.9060 C   0  0  0  0  0  0  0  0  0  0  0  0
  -33.0640   12.7400  -19.3620 C   0  0  0  0  0  3  0  0  0  0  0  0
  -34.7820   12.8040  -21.1250 C   0  0  0  0  0  0  0  0  0  0  0  0
  -34.2420   12.3060  -18.9130 N   0  0  0  0  0  0  0  0  0  0  0  0
  -33.0800   13.2300  -21.0450 S   0  0  0  0  0  0  0  0  0  0  0  0
  -36.5920   11.8350  -19.5500 C   0  0  0  0  0  1  0  0  0  0  0  0
  -37.5470   12.8570  -26.2550 C   0  0  0  0  0  2  0  0  0  0  0  0
  -36.1850   13.6690  -28.1420 C   0  0  0  0  0  0  0  0  0  0  0  0
  -36.4860   14.8560  -27.9860 O   0  0  0  0  0  0  0  0  0  0  0  0
  -36.6890   12.6770  -27.4080 N   0  0  0  0  0  0  0  0  0  0  0  0
  -36.4070   11.7310  -27.6260 H   0  0  0  0  0  0  0  0  0  0  0  0
  -36.1100   14.4190  -31.1520 C   0  0  0  0  0  0  0  0  0  0  0  0
  -35.1300   13.2470  -29.1700 C   0  0  0  0  0  3  0  0  0  0  0  0
  -33.6550   14.4790  -30.6260 C   0  0  0  0  0  2  0  0  0  0  0  0
  -35.0520   14.1180  -30.3560 N   0  0  0  0  0  0  0  0  0  0  0  0
  -37.2350   13.9450  -30.9480 O   0  0  0  0  0  0  0  0  0  0  0  0
  -33.7400   13.3070  -28.5180 C   0  0  0  0  0  2  0  0  0  0  0  0
  -32.8060   13.6590  -29.6550 C   0  0  0  0  0  3  0  0  0  0  0  0
  -32.3710   12.4830  -30.3210 O   0  0  0  0  0  0  0  0  0  0  0  0
  -33.1380   12.0180  -30.6380 H   0  0  0  0  0  0  0  0  0  0  0  0
  -35.9210   15.3410  -32.3850 C   0  0  0  0  0  3  0  0  0  0  0  0
  -36.6580   14.7310  -33.5050 N   0  0  0  0  0  0  0  0  0  0  0  0
  -36.1290   14.2160  -34.6220 C   0  0  0  0  0  0  0  0  0  0  0  0
  -34.9200   14.2730  -34.8630 O   0  0  0  0  0  0  0  0  0  0  0  0
  -37.6490   14.5830  -33.3660 H   0  0  0  0  0  0  0  0  0  0  0  0
  -37.1060   13.5620  -35.5630 C   0  0  1  0  0  0  0  0  0  0  0  0
  -38.3710   13.3880  -35.0270 F   0  0  0  0  0  0  0  0  0  0  0  0
  -37.0260   13.8620  -37.0420 C   0  0  0  0  0  2  0  0  0  0  0  0
  -36.6250   12.4980  -36.5280 C   0  0  0  0  0  2  0  0  0  0  0  0
  -35.7710   17.4350  -30.8750 C   0  0  0  0  0  1  0  0  0  0  0  0
  -35.9350   17.6910  -33.3380 C   0  0  0  0  0  1  0  0  0  0  0  0
  -37.9330   16.9450  -32.0270 C   0  0  0  0  0  1  0  0  0  0  0  0
  -36.3980   16.8210  -32.1500 C   0  0  1  0  0  0  0  0  0  0  0  0
  -38.5830   14.3710  -24.0640 O   0  0  0  0  0  0  0  0  0  0  0  0
  -38.4800   15.7120  -24.7070 C   0  0  0  0  0  2  0  0  0  0  0  0
  -40.2400   18.8670  -28.1690 N   0  0  0  0  0  0  0  0  0  0  0  0
  -39.8990   19.2510  -29.5670 C   0  0  0  0  0  2  0  0  0  0  0  0
  -41.1120   19.4060  -30.5500 C   0  0  0  0  0  2  0  0  0  0  0  0
  -42.2890   18.6900  -30.0660 N   0  0  0  0  0  0  0  0  0  0  0  0
  -42.6990   18.9420  -28.6850 C   0  0  0  0  0  2  0  0  0  0  0  0
  -41.5270   19.4740  -27.8060 C   0  0  0  0  0  2  0  0  0  0  0  0
  -40.2780   15.1090  -26.4660 C   0  0  0  0  0  3  0  0  0  0  0  0
  -40.9150   15.4080  -27.6740 C   0  0  0  0  0  3  0  0  0  0  0  0
  -39.4130   16.0730  -25.9320 C   0  0  0  0  0  0  0  0  0  0  0  0
  -40.0740   17.5390  -27.6660 C   0  0  0  0  0  0  0  0  0  0  0  0
  -40.7830   16.6010  -28.2750 N   0  0  0  0  0  0  0  0  0  0  0  0
  -39.3730   17.3210  -26.5280 N   0  0  0  0  0  0  0  0  0  0  0  0
  -43.1690   18.0510  -30.9740 C   0  0  0  0  0  0  0  0  0  0  0  0
  -44.4710   18.5360  -31.2140 C   0  0  0  0  0  3  0  0  0  0  0  0
  -45.3170   17.8460  -32.1240 C   0  0  0  0  0  0  0  0  0  0  0  0
  -44.8580   16.7230  -32.7470 N   0  0  0  0  0  0  0  0  0  0  0  0
  -43.6350   16.2350  -32.5200 N   0  0  0  0  0  0  0  0  0  0  0  0
  -42.8060   16.8690  -31.6620 C   0  0  0  0  0  0  0  0  0  0  0  0
  -41.5830   16.2650  -31.4340 N   0  0  0  0  0  0  0  0  0  0  0  0
  -41.1960   16.5590  -30.5400 H   0  0  0  0  0  0  0  0  0  0  0  0
  -41.5610   15.2670  -31.5790 H   0  0  0  0  0  0  0  0  0  0  0  0
  -46.7230   18.2780  -32.4460 C   0  0  0  0  0  0  0  0  0  0  0  0
  -47.6060   17.5790  -33.3330 C   0  0  0  0  0  0  0  0  0  0  0  0
  -48.9180   18.0350  -33.5700 C   0  0  0  0  0  3  0  0  0  0  0  0
  -49.4000   19.1920  -32.9420 C   0  0  0  0  0  3  0  0  0  0  0  0
  -48.5570   19.9040  -32.0770 C   0  0  0  0  0  3  0  0  0  0  0  0
  -47.2470   19.4520  -31.8390 C   0  0  0  0  0  3  0  0  0  0  0  0
  -47.2470   16.4410  -34.0000 O   0  0  0  0  0  0  0  0  0  0  0  0
  -46.3380   16.2090  -33.8020 H   0  0  0  0  0  0  0  0  0  0  0  0
  1  2  1  0
  2  3  2  0
  3  9  1  0
  4  6  2  0
  5  4  1  0
  5  1  2  0
  6  3  1  0
  7 12  1  0
  7 10  1  0
  8 10  2  0
  9 11  1  0
  9  7  2  0
 11  8  1  0
 13  5  1  0
 14 15  2  0
 14 16  1  0
 16 13  1  0
 17 16  1  0
 18 22  2  0
 18 21  1  0
 19 23  1  0
 19 14  1  0
 20 21  1  0
 20 24  1  0
 21 19  1  0
 24 25  1  0
 24 23  1  0
 26 25  1  0
 27 39  1  0
 27 18  1  0
 28 31  1  0
 28 27  1  0
 29 28  1  0
 30 29  2  0
 32 33  1  1
 32 29  1  0
 34 35  1  0
 34 32  1  0
 35 32  1  0
 39 37  1  6
 39 38  1  0
 39 36  1  0
 40  1  1  0
 41 40  1  0
 42 47  1  0
 42 51  1  0
 43 42  1  0
 44 45  1  0
 44 43  1  0
 45 46  1  0
 46 47  1  0
 48 50  1  0
 49 48  2  0
 50 41  1  0
 51 53  1  0
 52 49  1  0
 52 51  2  0
 53 50  2  0
 54 45  1  0
 55 54  1  0
 56 55  2  0
 57 58  2  0
 57 56  1  0
 58 59  1  0
 59 60  1  0
 59 54  2  0
 60 61  1  0
 62 60  1  0
 63 56  1  0
 63 68  1  0
 64 63  2  0
 65 64  1  0
 65 66  2  0
 66 67  1  0
 67 68  2  0
 69 70  1  0
 69 64  1  0
M  ISO  4  40 101  41 101  42 100  51 100
M  END
>  <TORSDO>  (128) 
F 15

>  <SCORE>  (128) 
-14.701

>  <name>  (128) 
127

>  <ligand_id>  (128) 
127

>  <original_smiles>  (128) 
[H]Oc1c([H])c([H])c([H])c([H])c1-c1nnc(N([H])[H])c(N2C([H])([H])C([H])([H])N(c3nc([H])c([H])c(C([H])([H])Oc4c([H])c(-c5sc([H])nc5C([H])([H])[H])c([H])c([H])c4C([H])([H])N([H])C(=O)C4([H])N(C(=O)C([H])(N([H])C(=O)C5(F)C([H])([H])C5([H])[H])C(C([H])([H])[H])(C([H])([H])[H])C([H])([H])[H])C([H])([H])C([H])(O[H])C4([H])[H])n3)C([H])([H])C2([H])[H])c1[H]

>  <smiles>  (128) 
[H]Oc1c([H])c([H])c([H])c([H])c1-c1nnc(N([H])[H])c(N2C([H])([H])C([H])([H])N(c3nc([H])c([H])c(C([H])([H])Oc4c([H])c(-c5sc([H])nc5C([H])([H])[H])c([H])c([H])c4C([H])([H])N([H])C(=O)C4([H])N(C(=O)C([H])(N([H])C(=O)C5(F)C([H])([H])C5([H])[H])C(C([H])([H])[H])(C([H])([H])[H])C([H])([H])[H])C([H])([H])C([H])(O[H])C4([H])[H])n3)C([H])([H])C2([H])[H])c1[H]

$$$$
128:0:0
     RDKit          3D

 73 80  0  0  1  0  0  0  0  0999 V2000
  -37.3840   13.4740  -23.7330 C   0  0  0  0  0  0  0  0  0  0  0  0
  -36.7040   13.4610  -22.4970 C   0  0  0  0  0  3  0  0  0  0  0  0
  -35.4170   12.8840  -22.3890 C   0  0  0  0  0  0  0  0  0  0  0  0
  -35.4890   12.3710  -24.7840 C   0  0  0  0  0  3  0  0  0  0  0  0
  -36.7880   12.9140  -24.8820 C   0  0  0  0  0  0  0  0  0  0  0  0
  -34.8150   12.3600  -23.5520 C   0  0  0  0  0  3  0  0  0  0  0  0
  -35.1730   12.3210  -19.8740 C   0  0  0  0  0  0  0  0  0  0  0  0
  -33.0080   12.7430  -19.3530 C   0  0  0  0  0  3  0  0  0  0  0  0
  -34.7250   12.7720  -21.1030 C   0  0  0  0  0  0  0  0  0  0  0  0
  -34.1810   12.3070  -18.8900 N   0  0  0  0  0  0  0  0  0  0  0  0
  -33.0340   13.2180  -21.0350 S   0  0  0  0  0  0  0  0  0  0  0  0
  -36.5350   11.8250  -19.4900 C   0  0  0  0  0  1  0  0  0  0  0  0
  -37.5760   12.8370  -26.1900 C   0  0  0  0  0  2  0  0  0  0  0  0
  -36.2160   13.6710  -28.0980 C   0  0  0  0  0  0  0  0  0  0  0  0
  -36.4900   14.8610  -27.9220 O   0  0  0  0  0  0  0  0  0  0  0  0
  -36.7400   12.6810  -27.3710 N   0  0  0  0  0  0  0  0  0  0  0  0
  -36.4800   11.7340  -27.6150 H   0  0  0  0  0  0  0  0  0  0  0  0
  -36.1600   14.4240  -31.1190 C   0  0  0  0  0  0  0  0  0  0  0  0
  -35.1710   13.2460  -29.1430 C   0  0  0  0  0  3  0  0  0  0  0  0
  -33.7030   14.4810  -30.6110 C   0  0  0  0  0  2  0  0  0  0  0  0
  -35.0980   14.1200  -30.3290 N   0  0  0  0  0  0  0  0  0  0  0  0
  -37.2810   13.9450  -30.9100 O   0  0  0  0  0  0  0  0  0  0  0  0
  -33.7700   13.2890  -28.5090 C   0  0  0  0  0  2  0  0  0  0  0  0
  -32.8470   13.6560  -29.6520 C   0  0  0  0  0  3  0  0  0  0  0  0
  -32.4080   12.4890  -30.3300 O   0  0  0  0  0  0  0  0  0  0  0  0
  -33.1740   12.0170  -30.6430 H   0  0  0  0  0  0  0  0  0  0  0  0
  -35.9810   15.3520  -32.3510 C   0  0  0  0  0  3  0  0  0  0  0  0
  -35.7760   17.4460  -30.8530 C   0  0  0  0  0  1  0  0  0  0  0  0
  -36.0300   17.7050  -33.3080 C   0  0  0  0  0  1  0  0  0  0  0  0
  -37.9800   16.9530  -31.9290 C   0  0  0  0  0  1  0  0  0  0  0  0
  -36.4500   16.8330  -32.1030 C   0  0  1  0  0  0  0  0  0  0  0  0
  -36.7320   14.7500  -33.4650 N   0  0  0  0  0  0  0  0  0  0  0  0
  -36.2150   14.2120  -34.5800 C   0  0  0  0  0  0  0  0  0  0  0  0
  -35.0050   14.2380  -34.8210 O   0  0  0  0  0  0  0  0  0  0  0  0
  -37.7270   14.6340  -33.3290 H   0  0  0  0  0  0  0  0  0  0  0  0
  -37.2060   13.5710  -35.5160 C   0  0  1  0  0  0  0  0  0  0  0  0
  -38.4750   13.4290  -34.9760 F   0  0  0  0  0  0  0  0  0  0  0  0
  -37.1190   13.8510  -36.9990 C   0  0  0  0  0  2  0  0  0  0  0  0
  -36.7490   12.4850  -36.4670 C   0  0  0  0  0  2  0  0  0  0  0  0
  -38.6800   13.8980  -23.8350 O   0  0  0  0  0  0  0  0  0  0  0  0
  -40.9870   16.7130  -24.3690 C   0  0  0  0  0  2  0  0  0  0  0  0
  -38.6930   17.5370  -24.8900 C   0  0  0  0  0  2  0  0  0  0  0  0
  -40.4510   15.2990  -24.1320 C   0  0  0  0  0  2  0  0  0  0  0  0
  -38.0970   16.1350  -24.6840 C   0  0  0  0  0  2  0  0  0  0  0  0
  -40.1450   17.4740  -25.4220 C   0  0  0  0  0  3  0  0  0  0  0  0
  -38.9660   15.2780  -23.7320 C   0  0  0  0  0  3  0  0  0  0  0  0
  -41.6300   16.3160  -27.2600 C   0  0  0  0  0  1  0  0  0  0  0  0
  -40.2560   16.9070  -26.8800 C   0  0  0  0  0  3  0  0  0  0  0  0
  -40.2320   18.9240  -28.4390 N   0  0  0  0  0  0  0  0  0  0  0  0
  -39.9100   19.5180  -29.7510 C   0  0  0  0  0  2  0  0  0  0  0  0
  -41.1090   19.4090  -30.7400 C   0  0  0  0  0  2  0  0  0  0  0  0
  -42.2120   18.6210  -30.1840 N   0  0  0  0  0  0  0  0  0  0  0  0
  -42.6710   18.9840  -28.8440 C   0  0  0  0  0  2  0  0  0  0  0  0
  -41.5040   19.4650  -27.9490 C   0  0  0  0  0  2  0  0  0  0  0  0
  -39.6200   17.8020  -27.9830 C   0  0  0  0  0  0  0  0  0  0  0  0
  -38.5520   17.4250  -28.4720 O   0  0  0  0  0  0  0  0  0  0  0  0
  -43.1300   18.0290  -31.0790 C   0  0  0  0  0  0  0  0  0  0  0  0
  -44.4260   18.5460  -31.2790 C   0  0  0  0  0  3  0  0  0  0  0  0
  -45.3070   17.8810  -32.1730 C   0  0  0  0  0  0  0  0  0  0  0  0
  -44.8790   16.7640  -32.8280 N   0  0  0  0  0  0  0  0  0  0  0  0
  -43.6580   16.2560  -32.6460 N   0  0  0  0  0  0  0  0  0  0  0  0
  -42.7980   16.8570  -31.7990 C   0  0  0  0  0  0  0  0  0  0  0  0
  -41.5690   16.2410  -31.6380 N   0  0  0  0  0  0  0  0  0  0  0  0
  -41.0350   16.5580  -30.8390 H   0  0  0  0  0  0  0  0  0  0  0  0
  -41.5050   15.2540  -31.8430 H   0  0  0  0  0  0  0  0  0  0  0  0
  -46.7160   18.3320  -32.4440 C   0  0  0  0  0  0  0  0  0  0  0  0
  -47.6370   17.6410  -33.2990 C   0  0  0  0  0  0  0  0  0  0  0  0
  -48.9500   18.1100  -33.4910 C   0  0  0  0  0  3  0  0  0  0  0  0
  -49.3970   19.2720  -32.8470 C   0  0  0  0  0  3  0  0  0  0  0  0
  -48.5190   19.9760  -32.0120 C   0  0  0  0  0  3  0  0  0  0  0  0
  -47.2060   19.5100  -31.8200 C   0  0  0  0  0  3  0  0  0  0  0  0
  -47.3090   16.4980  -33.9730 O   0  0  0  0  0  0  0  0  0  0  0  0
  -46.3960   16.2680  -33.7910 H   0  0  0  0  0  0  0  0  0  0  0  0
  1  2  1  0
  2  3  2  0
  3  9  1  0
  4  6  2  0
  5  4  1  0
  5  1  2  0
  6  3  1  0
  7 12  1  0
  7 10  1  0
  8 10  2  0
  9 11  1  0
  9  7  2  0
 11  8  1  0
 13  5  1  0
 14 15  2  0
 14 16  1  0
 16 13  1  0
 17 16  1  0
 18 22  2  0
 18 21  1  0
 19 23  1  0
 19 14  1  0
 20 21  1  0
 20 24  1  0
 21 19  1  0
 24 25  1  0
 24 23  1  0
 26 25  1  0
 27 31  1  0
 27 18  1  0
 31 29  1  6
 31 30  1  0
 31 28  1  0
 32 35  1  0
 32 27  1  0
 33 32  1  0
 34 33  2  0
 36 37  1  1
 36 33  1  0
 38 39  1  0
 38 36  1  0
 39 36  1  0
 40  1  1  0
 41 43  1  0
 42 44  1  0
 43 46  1  0
 44 46  1  0
 45 48  1  0
 45 42  1  0
 45 41  1  0
 46 40  1  0
 48 47  1  0
 49 55  1  0
 49 54  1  0
 50 49  1  0
 51 52  1  0
 51 50  1  0
 52 53  1  0
 53 54  1  0
 55 48  1  0
 56 55  2  0
 57 52  1  0
 58 57  1  0
 59 58  2  0
 60 61  2  0
 60 59  1  0
 61 62  1  0
 62 63  1  0
 62 57  2  0
 63 64  1  0
 65 63  1  0
 66 59  1  0
 66 71  1  0
 67 66  2  0
 68 67  1  0
 68 69  2  0
 69 70  1  0
 70 71  2  0
 72 73  1  0
 72 67  1  0
M  ISO  4  40 101  46 101  49 100  55 100
M  END
>  <TORSDO>  (129) 
F 16

>  <SCORE>  (129) 
-14.560

>  <name>  (129) 
128

>  <ligand_id>  (129) 
128

>  <original_smiles>  (129) 
[H]Oc1c([H])c([H])c([H])c([H])c1-c1nnc(N([H])[H])c(N2C([H])([H])C([H])([H])N(C(=O)C([H])(C([H])([H])[H])C3([H])C([H])([H])C([H])([H])C([H])(Oc4c([H])c(-c5sc([H])nc5C([H])([H])[H])c([H])c([H])c4C([H])([H])N([H])C(=O)C4([H])N(C(=O)C([H])(N([H])C(=O)C5(F)C([H])([H])C5([H])[H])C(C([H])([H])[H])(C([H])([H])[H])C([H])([H])[H])C([H])([H])C([H])(O[H])C4([H])[H])C([H])([H])C3([H])[H])C([H])([H])C2([H])[H])c1[H]

>  <smiles>  (129) 
[H]Oc1c([H])c([H])c([H])c([H])c1-c1nnc(N([H])[H])c(N2C([H])([H])C([H])([H])N(C(=O)C([H])(C([H])([H])[H])C3([H])C([H])([H])C([H])([H])C([H])(Oc4c([H])c(-c5sc([H])nc5C([H])([H])[H])c([H])c([H])c4C([H])([H])N([H])C(=O)C4([H])N(C(=O)C([H])(N([H])C(=O)C5(F)C([H])([H])C5([H])[H])C(C([H])([H])[H])(C([H])([H])[H])C([H])([H])[H])C([H])([H])C([H])(O[H])C4([H])[H])C([H])([H])C3([H])[H])C([H])([H])C2([H])[H])c1[H]

$$$$
129:0:0
     RDKit          3D

 74 82  0  0  1  0  0  0  0  0999 V2000
  -37.3430   13.4890  -23.7430 C   0  0  0  0  0  0  0  0  0  0  0  0
  -36.6700   13.3920  -22.5120 C   0  0  0  0  0  3  0  0  0  0  0  0
  -35.4200   12.7580  -22.4190 C   0  0  0  0  0  0  0  0  0  0  0  0
  -35.5270   12.2930  -24.8210 C   0  0  0  0  0  3  0  0  0  0  0  0
  -36.7890   12.9210  -24.9120 C   0  0  0  0  0  0  0  0  0  0  0  0
  -34.8480   12.2210  -23.5910 C   0  0  0  0  0  3  0  0  0  0  0  0
  -35.2520   12.1870  -19.9140 C   0  0  0  0  0  0  0  0  0  0  0  0
  -33.0920   12.5430  -19.3350 C   0  0  0  0  0  3  0  0  0  0  0  0
  -34.7530   12.6200  -21.1280 C   0  0  0  0  0  0  0  0  0  0  0  0
  -34.2900   12.1450  -18.9040 N   0  0  0  0  0  0  0  0  0  0  0  0
  -33.0560   13.0200  -21.0200 S   0  0  0  0  0  0  0  0  0  0  0  0
  -36.6430   11.7460  -19.5790 C   0  0  0  0  0  1  0  0  0  0  0  0
  -37.5620   12.9520  -26.2310 C   0  0  0  0  0  2  0  0  0  0  0  0
  -36.1860   13.6990  -28.1520 C   0  0  0  0  0  0  0  0  0  0  0  0
  -36.4510   14.8950  -28.0040 O   0  0  0  0  0  0  0  0  0  0  0  0
  -36.7280   12.7320  -27.4070 N   0  0  0  0  0  0  0  0  0  0  0  0
  -36.4770   11.7750  -27.6150 H   0  0  0  0  0  0  0  0  0  0  0  0
  -36.0970   14.4360  -31.1710 C   0  0  0  0  0  0  0  0  0  0  0  0
  -35.1390   13.2500  -29.1840 C   0  0  0  0  0  3  0  0  0  0  0  0
  -33.6440   14.4680  -30.6410 C   0  0  0  0  0  2  0  0  0  0  0  0
  -35.0450   14.1210  -30.3720 N   0  0  0  0  0  0  0  0  0  0  0  0
  -37.2260   13.9730  -30.9710 O   0  0  0  0  0  0  0  0  0  0  0  0
  -33.7440   13.2840  -28.5380 C   0  0  0  0  0  2  0  0  0  0  0  0
  -32.8050   13.6390  -29.6720 C   0  0  0  0  0  3  0  0  0  0  0  0
  -32.3720   12.4660  -30.3430 O   0  0  0  0  0  0  0  0  0  0  0  0
  -33.1380   12.0040  -30.6670 H   0  0  0  0  0  0  0  0  0  0  0  0
  -35.8950   15.3620  -32.4010 C   0  0  0  0  0  3  0  0  0  0  0  0
  -35.6760   17.4340  -30.8730 C   0  0  0  0  0  1  0  0  0  0  0  0
  -35.8370   17.7200  -33.3330 C   0  0  0  0  0  1  0  0  0  0  0  0
  -37.8550   17.0250  -32.0230 C   0  0  0  0  0  1  0  0  0  0  0  0
  -36.3260   16.8540  -32.1520 C   0  0  1  0  0  0  0  0  0  0  0  0
  -36.6660   14.7810  -33.5140 N   0  0  0  0  0  0  0  0  0  0  0  0
  -36.1680   14.2650  -34.6470 C   0  0  0  0  0  0  0  0  0  0  0  0
  -34.9630   14.2960  -34.9080 O   0  0  0  0  0  0  0  0  0  0  0  0
  -37.6570   14.6550  -33.3610 H   0  0  0  0  0  0  0  0  0  0  0  0
  -37.1760   13.6410  -35.5770 C   0  0  1  0  0  0  0  0  0  0  0  0
  -38.4340   13.4840  -35.0170 F   0  0  0  0  0  0  0  0  0  0  0  0
  -37.1180   13.9580  -37.0530 C   0  0  0  0  0  2  0  0  0  0  0  0
  -36.7340   12.5800  -36.5610 C   0  0  0  0  0  2  0  0  0  0  0  0
  -38.5630   14.0920  -23.7630 O   0  0  0  0  0  0  0  0  0  0  0  0
  -38.0610   17.7460  -23.2820 C   0  0  0  0  0  3  0  0  0  0  0  0
  -37.9360   16.3620  -23.0490 C   0  0  0  0  0  3  0  0  0  0  0  0
  -39.3370   15.9160  -24.9760 C   0  0  0  0  0  3  0  0  0  0  0  0
  -39.5260   17.2880  -25.1790 C   0  0  0  0  0  0  0  0  0  0  0  0
  -38.8610   18.2210  -24.3450 C   0  0  0  0  0  0  0  0  0  0  0  0
  -38.5780   15.4470  -23.9130 C   0  0  0  0  0  0  0  0  0  0  0  0
  -39.0040   19.7180  -24.5590 C   0  0  0  0  0  1  0  0  0  0  0  0
  -41.5050   16.6750  -26.8020 C   0  0  0  0  0  2  0  0  0  0  0  0
  -40.7050   16.6530  -28.1070 C   0  0  0  0  0  2  0  0  0  0  0  0
  -40.5040   17.7080  -26.2510 C   0  0  0  0  0  3  0  0  0  0  0  0
  -40.0100   17.9680  -27.7000 C   0  0  0  0  0  3  0  0  0  0  0  0
  -40.2490   19.2750  -28.3660 N   0  0  0  0  0  0  0  0  0  0  0  0
  -39.8920   19.3650  -29.8000 C   0  0  0  0  0  2  0  0  0  0  0  0
  -41.1070   19.4820  -30.7710 C   0  0  0  0  0  2  0  0  0  0  0  0
  -42.2340   18.7120  -30.2610 N   0  0  0  0  0  0  0  0  0  0  0  0
  -42.6890   19.0500  -28.9220 C   0  0  0  0  0  2  0  0  0  0  0  0
  -41.5940   19.7990  -28.1220 C   0  0  0  0  0  2  0  0  0  0  0  0
  -43.1180   18.0580  -31.1410 C   0  0  0  0  0  0  0  0  0  0  0  0
  -44.4400   18.5080  -31.3270 C   0  0  0  0  0  3  0  0  0  0  0  0
  -45.2930   17.8000  -32.2110 C   0  0  0  0  0  0  0  0  0  0  0  0
  -44.8200   16.6970  -32.8580 N   0  0  0  0  0  0  0  0  0  0  0  0
  -43.5770   16.2430  -32.6780 N   0  0  0  0  0  0  0  0  0  0  0  0
  -42.7390   16.8940  -31.8470 C   0  0  0  0  0  0  0  0  0  0  0  0
  -41.4860   16.3340  -31.6800 N   0  0  0  0  0  0  0  0  0  0  0  0
  -41.0120   16.6880  -30.8590 H   0  0  0  0  0  0  0  0  0  0  0  0
  -41.4250   15.3350  -31.8050 H   0  0  0  0  0  0  0  0  0  0  0  0
  -46.7170   18.1960  -32.4780 C   0  0  0  0  0  0  0  0  0  0  0  0
  -47.6000   17.4900  -33.3590 C   0  0  0  0  0  0  0  0  0  0  0  0
  -48.9310   17.9090  -33.5480 C   0  0  0  0  0  3  0  0  0  0  0  0
  -49.4320   19.0350  -32.8810 C   0  0  0  0  0  3  0  0  0  0  0  0
  -48.5910   19.7520  -32.0190 C   0  0  0  0  0  3  0  0  0  0  0  0
  -47.2610   19.3360  -31.8270 C   0  0  0  0  0  3  0  0  0  0  0  0
  -47.2240   16.3800  -34.0610 O   0  0  0  0  0  0  0  0  0  0  0  0
  -46.3050   16.1690  -33.8900 H   0  0  0  0  0  0  0  0  0  0  0  0
  1  2  1  0
  2  3  2  0
  3  9  1  0
  4  6  2  0
  5  4  1  0
  5  1  2  0
  6  3  1  0
  7 12  1  0
  7 10  1  0
  8 10  2  0
  9 11  1  0
  9  7  2  0
 11  8  1  0
 13  5  1  0
 14 15  2  0
 14 16  1  0
 16 13  1  0
 17 16  1  0
 18 22  2  0
 18 21  1  0
 19 23  1  0
 19 14  1  0
 20 21  1  0
 20 24  1  0
 21 19  1  0
 24 25  1  0
 24 23  1  0
 26 25  1  0
 27 31  1  0
 27 18  1  0
 31 29  1  6
 31 30  1  0
 31 28  1  0
 32 35  1  0
 32 27  1  0
 33 32  1  0
 34 33  2  0
 36 37  1  1
 36 33  1  0
 38 39  1  0
 38 36  1  0
 39 36  1  0
 40  1  1  0
 41 42  1  0
 43 46  1  0
 44 43  2  0
 44 45  1  0
 45 41  2  0
 46 40  1  0
 46 42  2  0
 47 45  1  0
 48 50  1  0
 49 48  1  0
 50 44  1  0
 51 49  1  0
 51 50  1  0
 52 53  1  0
 52 57  1  0
 52 51  1  0
 54 55  1  0
 54 53  1  0
 55 56  1  0
 56 57  1  0
 58 55  1  0
 59 58  1  0
 60 59  2  0
 61 62  2  0
 61 60  1  0
 62 63  1  0
 63 64  1  0
 63 58  2  0
 64 65  1  0
 66 64  1  0
 67 60  1  0
 67 72  1  0
 68 67  2  0
 69 68  1  0
 69 70  2  0
 70 71  1  0
 71 72  2  0
 73 74  1  0
 73 68  1  0
M  ISO  4  40 101  46 101  51 100  52 100
M  END
>  <TORSDO>  (130) 
F 16

>  <SCORE>  (130) 
-14.720

>  <name>  (130) 
129

>  <ligand_id>  (130) 
129

>  <original_smiles>  (130) 
[H]Oc1c([H])c([H])c([H])c([H])c1-c1nnc(N([H])[H])c(N2C([H])([H])C([H])([H])N(C3([H])C([H])([H])C([H])([H])C3([H])c3c([H])c(Oc4c([H])c(-c5sc([H])nc5C([H])([H])[H])c([H])c([H])c4C([H])([H])N([H])C(=O)C4([H])N(C(=O)C([H])(N([H])C(=O)C5(F)C([H])([H])C5([H])[H])C(C([H])([H])[H])(C([H])([H])[H])C([H])([H])[H])C([H])([H])C([H])(O[H])C4([H])[H])c([H])c([H])c3C([H])([H])[H])C([H])([H])C2([H])[H])c1[H]

>  <smiles>  (130) 
[H]Oc1c([H])c([H])c([H])c([H])c1-c1nnc(N([H])[H])c(N2C([H])([H])C([H])([H])N(C3([H])C([H])([H])C([H])([H])C3([H])c3c([H])c(Oc4c([H])c(-c5sc([H])nc5C([H])([H])[H])c([H])c([H])c4C([H])([H])N([H])C(=O)C4([H])N(C(=O)C([H])(N([H])C(=O)C5(F)C([H])([H])C5([H])[H])C(C([H])([H])[H])(C([H])([H])[H])C([H])([H])[H])C([H])([H])C([H])(O[H])C4([H])[H])c([H])c([H])c3C([H])([H])[H])C([H])([H])C2([H])[H])c1[H]

$$$$
130:0:0
     RDKit          3D

 73 80  0  0  1  0  0  0  0  0999 V2000
  -37.4350   13.5640  -23.7290 C   0  0  0  0  0  0  0  0  0  0  0  0
  -36.7640   13.4790  -22.4800 C   0  0  0  0  0  3  0  0  0  0  0  0
  -35.4800   12.8850  -22.3740 C   0  0  0  0  0  0  0  0  0  0  0  0
  -35.5540   12.4190  -24.7750 C   0  0  0  0  0  3  0  0  0  0  0  0
  -36.8450   12.9840  -24.8710 C   0  0  0  0  0  0  0  0  0  0  0  0
  -34.8750   12.3870  -23.5450 C   0  0  0  0  0  3  0  0  0  0  0  0
  -35.2190   12.2810  -19.8750 C   0  0  0  0  0  0  0  0  0  0  0  0
  -33.0630   12.7110  -19.3330 C   0  0  0  0  0  3  0  0  0  0  0  0
  -34.7750   12.7570  -21.0920 C   0  0  0  0  0  0  0  0  0  0  0  0
  -34.2340   12.2610  -18.8830 N   0  0  0  0  0  0  0  0  0  0  0  0
  -33.0840   13.2110  -21.0120 S   0  0  0  0  0  0  0  0  0  0  0  0
  -36.5830   11.7770  -19.5160 C   0  0  0  0  0  1  0  0  0  0  0  0
  -37.6170   12.9770  -26.1870 C   0  0  0  0  0  2  0  0  0  0  0  0
  -36.2080   13.7380  -28.0710 C   0  0  0  0  0  0  0  0  0  0  0  0
  -36.4450   14.9360  -27.8970 O   0  0  0  0  0  0  0  0  0  0  0  0
  -36.7720   12.7660  -27.3500 N   0  0  0  0  0  0  0  0  0  0  0  0
  -36.5400   11.8100  -27.5780 H   0  0  0  0  0  0  0  0  0  0  0  0
  -36.1410   14.4680  -31.0880 C   0  0  0  0  0  0  0  0  0  0  0  0
  -35.1700   13.2830  -29.1090 C   0  0  0  0  0  3  0  0  0  0  0  0
  -33.6830   14.4870  -30.5830 C   0  0  0  0  0  2  0  0  0  0  0  0
  -35.0840   14.1500  -30.2980 N   0  0  0  0  0  0  0  0  0  0  0  0
  -37.2700   14.0090  -30.8770 O   0  0  0  0  0  0  0  0  0  0  0  0
  -33.7720   13.3150  -28.4720 C   0  0  0  0  0  2  0  0  0  0  0  0
  -32.8390   13.6600  -29.6160 C   0  0  0  0  0  3  0  0  0  0  0  0
  -32.4180   12.4830  -30.2840 O   0  0  0  0  0  0  0  0  0  0  0  0
  -33.1890   12.0280  -30.6090 H   0  0  0  0  0  0  0  0  0  0  0  0
  -35.9480   15.3900  -32.3200 C   0  0  0  0  0  3  0  0  0  0  0  0
  -36.7090   14.7960  -33.4320 N   0  0  0  0  0  0  0  0  0  0  0  0
  -36.2000   14.2320  -34.5370 C   0  0  0  0  0  0  0  0  0  0  0  0
  -34.9890   14.2250  -34.7710 O   0  0  0  0  0  0  0  0  0  0  0  0
  -37.7070   14.7020  -33.2990 H   0  0  0  0  0  0  0  0  0  0  0  0
  -37.2010   13.6070  -35.4710 C   0  0  1  0  0  0  0  0  0  0  0  0
  -38.4790   13.5130  -34.9410 F   0  0  0  0  0  0  0  0  0  0  0  0
  -37.0940   13.8620  -36.9570 C   0  0  0  0  0  2  0  0  0  0  0  0
  -36.7680   12.4930  -36.4000 C   0  0  0  0  0  2  0  0  0  0  0  0
  -35.7060   17.4940  -30.8350 C   0  0  0  0  0  1  0  0  0  0  0  0
  -35.9840   17.7310  -33.2930 C   0  0  0  0  0  1  0  0  0  0  0  0
  -37.9230   17.0220  -31.8790 C   0  0  0  0  0  1  0  0  0  0  0  0
  -36.3980   16.8780  -32.0750 C   0  0  1  0  0  0  0  0  0  0  0  0
  -38.6050   14.2880  -23.8960 O   0  0  0  0  0  0  0  0  0  0  0  0
  -39.0640   16.2460  -22.5700 C   0  0  0  0  0  1  0  0  0  0  0  0
  -38.3910   15.7240  -23.8440 C   0  0  0  0  0  3  0  0  0  0  0  0
  -40.4920   19.1840  -27.9630 N   0  0  0  0  0  0  0  0  0  0  0  0
  -40.0750   19.4940  -29.3410 C   0  0  0  0  0  2  0  0  0  0  0  0
  -41.2710   19.5560  -30.3470 C   0  0  0  0  0  2  0  0  0  0  0  0
  -42.3750   18.6860  -29.9310 N   0  0  0  0  0  0  0  0  0  0  0  0
  -42.8680   18.7930  -28.5570 C   0  0  0  0  0  2  0  0  0  0  0  0
  -41.8700   19.5200  -27.6300 C   0  0  0  0  0  2  0  0  0  0  0  0
  -40.0430   16.3530  -25.7380 C   0  0  0  0  0  3  0  0  0  0  0  0
  -38.8100   16.5710  -25.0830 C   0  0  0  0  0  0  0  0  0  0  0  0
  -38.0510   17.6960  -25.5390 C   0  0  0  0  0  0  0  0  0  0  0  0
  -38.5520   18.5030  -26.6010 C   0  0  0  0  0  0  0  0  0  0  0  0
  -39.8380   18.2380  -27.1270 C   0  0  0  0  0  0  0  0  0  0  0  0
  -36.7420   18.1220  -24.8760 C   0  0  0  0  0  1  0  0  0  0  0  0
  -40.5530   17.1660  -26.7030 N   0  0  0  0  0  0  0  0  0  0  0  0
  -37.6470   19.8710  -27.1720 Cl  0  0  0  0  0  0  0  0  0  0  0  0
  -43.1880   18.0650  -30.9050 C   0  0  0  0  0  0  0  0  0  0  0  0
  -44.5150   18.4710  -31.1470 C   0  0  0  0  0  3  0  0  0  0  0  0
  -45.2870   17.7760  -32.1170 C   0  0  0  0  0  0  0  0  0  0  0  0
  -44.7310   16.7290  -32.7920 N   0  0  0  0  0  0  0  0  0  0  0  0
  -43.4790   16.3220  -32.5640 N   0  0  0  0  0  0  0  0  0  0  0  0
  -42.7200   16.9620  -31.6530 C   0  0  0  0  0  0  0  0  0  0  0  0
  -41.4540   16.4450  -31.4330 N   0  0  0  0  0  0  0  0  0  0  0  0
  -41.0600   16.7800  -30.5610 H   0  0  0  0  0  0  0  0  0  0  0  0
  -41.3610   15.4490  -31.5720 H   0  0  0  0  0  0  0  0  0  0  0  0
  -46.7150   18.1170  -32.4450 C   0  0  0  0  0  0  0  0  0  0  0  0
  -47.5440   17.3650  -33.3420 C   0  0  0  0  0  0  0  0  0  0  0  0
  -48.8830   17.7350  -33.5850 C   0  0  0  0  0  3  0  0  0  0  0  0
  -49.4420   18.8550  -32.9550 C   0  0  0  0  0  3  0  0  0  0  0  0
  -48.6550   19.6160  -32.0800 C   0  0  0  0  0  3  0  0  0  0  0  0
  -47.3200   19.2500  -31.8370 C   0  0  0  0  0  3  0  0  0  0  0  0
  -47.1070   16.2550  -34.0090 O   0  0  0  0  0  0  0  0  0  0  0  0
  -46.1890   16.0780  -33.8020 H   0  0  0  0  0  0  0  0  0  0  0  0
  1  2  1  0
  2  3  2  0
  3  9  1  0
  4  6  2  0
  5  4  1  0
  5  1  2  0
  6  3  1  0
  7 12  1  0
  7 10  1  0
  8 10  2  0
  9 11  1  0
  9  7  2  0
 11  8  1  0
 13  5  1  0
 14 15  2  0
 14 16  1  0
 16 13  1  0
 17 16  1  0
 18 22  2  0
 18 21  1  0
 19 23  1  0
 19 14  1  0
 20 21  1  0
 20 24  1  0
 21 19  1  0
 24 25  1  0
 24 23  1  0
 26 25  1  0
 27 39  1  0
 27 18  1  0
 28 31  1  0
 28 27  1  0
 29 28  1  0
 30 29  2  0
 32 33  1  1
 32 29  1  0
 34 35  1  0
 34 32  1  0
 35 32  1  0
 39 37  1  6
 39 38  1  0
 39 36  1  0
 40 42  1  0
 40  1  1  0
 42 41  1  0
 43 48  1  0
 43 53  1  0
 44 43  1  0
 45 46  1  0
 45 44  1  0
 46 47  1  0
 47 48  1  0
 49 50  1  0
 50 42  1  0
 51 50  2  0
 51 54  1  0
 52 51  1  0
 53 55  1  0
 53 52  2  0
 55 49  2  0
 56 52  1  0
 57 46  1  0
 58 57  1  0
 59 58  2  0
 60 61  2  0
 60 59  1  0
 61 62  1  0
 62 63  1  0
 62 57  2  0
 63 64  1  0
 65 63  1  0
 66 59  1  0
 66 71  1  0
 67 66  2  0
 68 67  1  0
 68 69  2  0
 69 70  1  0
 70 71  2  0
 72 73  1  0
 72 67  1  0
M  ISO  4  40 101  42 101  43 100  53 100
M  END
>  <TORSDO>  (131) 
F 15

>  <SCORE>  (131) 
-14.647

>  <name>  (131) 
130

>  <ligand_id>  (131) 
130

>  <original_smiles>  (131) 
[H]Oc1c([H])c([H])c([H])c([H])c1-c1nnc(N([H])[H])c(N2C([H])([H])C([H])([H])N(c3nc([H])c(C([H])(Oc4c([H])c(-c5sc([H])nc5C([H])([H])[H])c([H])c([H])c4C([H])([H])N([H])C(=O)C4([H])N(C(=O)C([H])(N([H])C(=O)C5(F)C([H])([H])C5([H])[H])C(C([H])([H])[H])(C([H])([H])[H])C([H])([H])[H])C([H])([H])C([H])(O[H])C4([H])[H])C([H])([H])[H])c(C([H])([H])[H])c3Cl)C([H])([H])C2([H])[H])c1[H]

>  <smiles>  (131) 
[H]Oc1c([H])c([H])c([H])c([H])c1-c1nnc(N([H])[H])c(N2C([H])([H])C([H])([H])N(c3nc([H])c(C([H])(Oc4c([H])c(-c5sc([H])nc5C([H])([H])[H])c([H])c([H])c4C([H])([H])N([H])C(=O)C4([H])N(C(=O)C([H])(N([H])C(=O)C5(F)C([H])([H])C5([H])[H])C(C([H])([H])[H])(C([H])([H])[H])C([H])([H])[H])C([H])([H])C([H])(O[H])C4([H])[H])C([H])([H])[H])c(C([H])([H])[H])c3Cl)C([H])([H])C2([H])[H])c1[H]

$$$$
131:0:0
     RDKit          3D

 74 81  0  0  1  0  0  0  0  0999 V2000
  -37.3660   13.5400  -23.7000 C   0  0  0  0  0  0  0  0  0  0  0  0
  -36.6510   13.4540  -22.4800 C   0  0  0  0  0  3  0  0  0  0  0  0
  -35.3950   12.8260  -22.3740 C   0  0  0  0  0  0  0  0  0  0  0  0
  -35.5080   12.3750  -24.7710 C   0  0  0  0  0  3  0  0  0  0  0  0
  -36.7940   12.9630  -24.8740 C   0  0  0  0  0  0  0  0  0  0  0  0
  -34.8170   12.3110  -23.5500 C   0  0  0  0  0  3  0  0  0  0  0  0
  -35.2010   12.2280  -19.8670 C   0  0  0  0  0  0  0  0  0  0  0  0
  -33.0390   12.5980  -19.2950 C   0  0  0  0  0  3  0  0  0  0  0  0
  -34.7170   12.6810  -21.0810 C   0  0  0  0  0  0  0  0  0  0  0  0
  -34.2310   12.1850  -18.8620 N   0  0  0  0  0  0  0  0  0  0  0  0
  -33.0190   13.0910  -20.9760 S   0  0  0  0  0  0  0  0  0  0  0  0
  -36.5840   11.7650  -19.5220 C   0  0  0  0  0  1  0  0  0  0  0  0
  -37.5250   12.8620  -26.2190 C   0  0  0  0  0  2  0  0  0  0  0  0
  -36.1420   13.7070  -28.0930 C   0  0  0  0  0  0  0  0  0  0  0  0
  -36.4230   14.8950  -27.9200 O   0  0  0  0  0  0  0  0  0  0  0  0
  -36.6610   12.7070  -27.3730 N   0  0  0  0  0  0  0  0  0  0  0  0
  -36.4060   11.7620  -27.6260 H   0  0  0  0  0  0  0  0  0  0  0  0
  -36.0620   14.4740  -31.1020 C   0  0  0  0  0  0  0  0  0  0  0  0
  -35.0950   13.2810  -29.1270 C   0  0  0  0  0  3  0  0  0  0  0  0
  -33.6060   14.5050  -30.5740 C   0  0  0  0  0  2  0  0  0  0  0  0
  -35.0070   14.1580  -30.3060 N   0  0  0  0  0  0  0  0  0  0  0  0
  -37.1910   14.0100  -30.8980 O   0  0  0  0  0  0  0  0  0  0  0  0
  -33.7060   13.3180  -28.4740 C   0  0  0  0  0  2  0  0  0  0  0  0
  -32.7670   13.6700  -29.6070 C   0  0  0  0  0  3  0  0  0  0  0  0
  -32.3380   12.4970  -30.2790 O   0  0  0  0  0  0  0  0  0  0  0  0
  -33.1040   12.0380  -30.6060 H   0  0  0  0  0  0  0  0  0  0  0  0
  -35.8650   15.4000  -32.3290 C   0  0  0  0  0  3  0  0  0  0  0  0
  -36.6220   14.8100  -33.4480 N   0  0  0  0  0  0  0  0  0  0  0  0
  -36.1100   14.2780  -34.5670 C   0  0  0  0  0  0  0  0  0  0  0  0
  -34.9010   14.3000  -34.8110 O   0  0  0  0  0  0  0  0  0  0  0  0
  -37.6160   14.6890  -33.3090 H   0  0  0  0  0  0  0  0  0  0  0  0
  -37.1060   13.6470  -35.5050 C   0  0  1  0  0  0  0  0  0  0  0  0
  -38.3790   13.5220  -34.9680 F   0  0  0  0  0  0  0  0  0  0  0  0
  -37.0110   13.9300  -36.9860 C   0  0  0  0  0  2  0  0  0  0  0  0
  -36.6570   12.5580  -36.4560 C   0  0  0  0  0  2  0  0  0  0  0  0
  -35.6690   17.4790  -30.8070 C   0  0  0  0  0  1  0  0  0  0  0  0
  -35.8340   17.7550  -33.2670 C   0  0  0  0  0  1  0  0  0  0  0  0
  -37.8460   17.0420  -31.9550 C   0  0  0  0  0  1  0  0  0  0  0  0
  -36.3140   16.8870  -32.0830 C   0  0  1  0  0  0  0  0  0  0  0  0
  -38.5800   14.1790  -23.5410 O   0  0  0  0  0  0  0  0  0  0  0  0
  -39.5940   14.3750  -24.5060 C   0  0  0  0  0  2  0  0  0  0  0  0
  -39.3390   15.6180  -25.3810 C   0  0  0  0  0  2  0  0  0  0  0  0
  -40.0760   19.2680  -28.3940 N   0  0  0  0  0  0  0  0  0  0  0  0
  -39.7650   19.5270  -29.8000 C   0  0  0  0  0  2  0  0  0  0  0  0
  -41.0210   19.4680  -30.7170 C   0  0  0  0  0  2  0  0  0  0  0  0
  -42.0880   18.6350  -30.1520 N   0  0  0  0  0  0  0  0  0  0  0  0
  -42.5110   18.8900  -28.7750 C   0  0  0  0  0  2  0  0  0  0  0  0
  -41.4260   19.6170  -27.9510 C   0  0  0  0  0  2  0  0  0  0  0  0
  -37.3200   18.3750  -25.5550 C   0  0  0  0  0  3  0  0  0  0  0  0
  -37.0280   19.2710  -26.5960 C   0  0  0  0  0  0  0  0  0  0  0  0
  -38.5960   17.8110  -25.5710 C   0  0  0  0  0  0  0  0  0  0  0  0
  -39.1140   18.9730  -27.4550 C   0  0  0  0  0  0  0  0  0  0  0  0
  -35.6940   19.9790  -26.6740 C   0  0  0  0  0  1  0  0  0  0  0  0
  -39.9330   17.3430  -23.6700 C   0  0  0  0  0  1  0  0  0  0  0  0
  -37.9280   19.5550  -27.5600 N   0  0  0  0  0  0  0  0  0  0  0  0
  -39.4960   18.1440  -26.5040 N   0  0  0  0  0  0  0  0  0  0  0  0
  -38.9750   16.8320  -24.6470 N   0  0  0  0  0  0  0  0  0  0  0  0
  -43.0120   18.0380  -31.0400 C   0  0  0  0  0  0  0  0  0  0  0  0
  -44.3260   18.5220  -31.2230 C   0  0  0  0  0  3  0  0  0  0  0  0
  -45.1970   17.8380  -32.1160 C   0  0  0  0  0  0  0  0  0  0  0  0
  -44.7490   16.7330  -32.7730 N   0  0  0  0  0  0  0  0  0  0  0  0
  -43.5160   16.2490  -32.5990 N   0  0  0  0  0  0  0  0  0  0  0  0
  -42.6640   16.8770  -31.7640 C   0  0  0  0  0  0  0  0  0  0  0  0
  -41.4250   16.2870  -31.5920 N   0  0  0  0  0  0  0  0  0  0  0  0
  -40.9720   16.6280  -30.7540 H   0  0  0  0  0  0  0  0  0  0  0  0
  -41.3990   15.2840  -31.6990 H   0  0  0  0  0  0  0  0  0  0  0  0
  -46.6170   18.2550  -32.3830 C   0  0  0  0  0  0  0  0  0  0  0  0
  -47.5190   17.5610  -33.2580 C   0  0  0  0  0  0  0  0  0  0  0  0
  -48.8460   18.0050  -33.4440 C   0  0  0  0  0  3  0  0  0  0  0  0
  -49.3220   19.1450  -32.7790 C   0  0  0  0  0  3  0  0  0  0  0  0
  -48.4620   19.8480  -31.9240 C   0  0  0  0  0  3  0  0  0  0  0  0
  -47.1390   19.4080  -31.7350 C   0  0  0  0  0  3  0  0  0  0  0  0
  -47.1700   16.4410  -33.9570 O   0  0  0  0  0  0  0  0  0  0  0  0
  -46.2540   16.2140  -33.7920 H   0  0  0  0  0  0  0  0  0  0  0  0
  1 40  1  0
  1  2  1  0
  2  3  2  0
  3  9  1  0
  4  6  2  0
  5  4  1  0
  5  1  2  0
  6  3  1  0
  7 12  1  0
  7 10  1  0
  8 10  2  0
  9 11  1  0
  9  7  2  0
 11  8  1  0
 13  5  1  0
 14 15  2  0
 14 16  1  0
 16 13  1  0
 17 16  1  0
 18 22  2  0
 18 21  1  0
 19 23  1  0
 19 14  1  0
 20 21  1  0
 20 24  1  0
 21 19  1  0
 24 25  1  0
 24 23  1  0
 26 25  1  0
 27 39  1  0
 27 18  1  0
 28 31  1  0
 28 27  1  0
 29 28  1  0
 30 29  2  0
 32 33  1  1
 32 29  1  0
 34 35  1  0
 34 32  1  0
 35 32  1  0
 39 37  1  6
 39 38  1  0
 39 36  1  0
 41 40  1  0
 42 57  1  0
 42 41  1  0
 43 48  1  0
 43 52  1  0
 44 43  1  0
 45 46  1  0
 45 44  1  0
 46 47  1  0
 47 48  1  0
 50 49  2  0
 51 49  1  0
 51 57  1  0
 52 56  1  0
 53 50  1  0
 55 52  2  0
 55 50  1  0
 56 51  2  0
 57 54  1  0
 58 46  1  0
 59 58  1  0
 60 59  2  0
 61 62  2  0
 61 60  1  0
 62 63  1  0
 63 64  1  0
 63 58  2  0
 64 65  1  0
 66 64  1  0
 67 60  1  0
 67 72  1  0
 68 67  2  0
 69 68  1  0
 69 70  2  0
 70 71  1  0
 71 72  2  0
 73 74  1  0
 73 68  1  0
M  ISO  4  40 101  41 101  43 100  52 100
M  END
>  <TORSDO>  (132) 
F 16

>  <SCORE>  (132) 
-14.711

>  <name>  (132) 
131

>  <ligand_id>  (132) 
131

>  <original_smiles>  (132) 
[H]Oc1c([H])c([H])c([H])c([H])c1-c1nnc(N([H])[H])c(N2C([H])([H])C([H])([H])N(c3nc(N(C([H])([H])[H])C([H])([H])C([H])([H])Oc4c([H])c(-c5sc([H])nc5C([H])([H])[H])c([H])c([H])c4C([H])([H])N([H])C(=O)C4([H])N(C(=O)C([H])(N([H])C(=O)C5(F)C([H])([H])C5([H])[H])C(C([H])([H])[H])(C([H])([H])[H])C([H])([H])[H])C([H])([H])C([H])(O[H])C4([H])[H])c([H])c(C([H])([H])[H])n3)C([H])([H])C2([H])[H])c1[H]

>  <smiles>  (132) 
[H]Oc1c([H])c([H])c([H])c([H])c1-c1nnc(N([H])[H])c(N2C([H])([H])C([H])([H])N(c3nc(N(C([H])([H])[H])C([H])([H])C([H])([H])Oc4c([H])c(-c5sc([H])nc5C([H])([H])[H])c([H])c([H])c4C([H])([H])N([H])C(=O)C4([H])N(C(=O)C([H])(N([H])C(=O)C5(F)C([H])([H])C5([H])[H])C(C([H])([H])[H])(C([H])([H])[H])C([H])([H])[H])C([H])([H])C([H])(O[H])C4([H])[H])c([H])c(C([H])([H])[H])n3)C([H])([H])C2([H])[H])c1[H]

$$$$
132:0:0
     RDKit          3D

 69 76  0  0  1  0  0  0  0  0999 V2000
  -37.4090   13.8110  -23.8910 C   0  0  0  0  0  0  0  0  0  0  0  0
  -36.7510   13.6750  -22.6090 C   0  0  0  0  0  3  0  0  0  0  0  0
  -35.5060   12.9780  -22.4300 C   0  0  0  0  0  0  0  0  0  0  0  0
  -35.5890   12.4140  -24.7980 C   0  0  0  0  0  3  0  0  0  0  0  0
  -36.8400   13.0660  -24.9530 C   0  0  0  0  0  0  0  0  0  0  0  0
  -34.9200   12.3940  -23.5680 C   0  0  0  0  0  3  0  0  0  0  0  0
  -35.2050   12.3180  -19.9200 C   0  0  0  0  0  0  0  0  0  0  0  0
  -33.0310   12.7040  -19.4020 C   0  0  0  0  0  3  0  0  0  0  0  0
  -34.7870   12.8190  -21.1410 C   0  0  0  0  0  0  0  0  0  0  0  0
  -34.2030   12.2690  -18.9430 N   0  0  0  0  0  0  0  0  0  0  0  0
  -33.0740   13.2210  -21.0780 S   0  0  0  0  0  0  0  0  0  0  0  0
  -36.5620   11.8150  -19.5430 C   0  0  0  0  0  1  0  0  0  0  0  0
  -37.6030   12.8850  -26.2570 C   0  0  0  0  0  2  0  0  0  0  0  0
  -36.1830   13.6950  -28.1070 C   0  0  0  0  0  0  0  0  0  0  0  0
  -36.4370   14.8860  -27.9310 O   0  0  0  0  0  0  0  0  0  0  0  0
  -36.7350   12.7080  -27.4020 N   0  0  0  0  0  0  0  0  0  0  0  0
  -36.4830   11.7580  -27.6390 H   0  0  0  0  0  0  0  0  0  0  0  0
  -36.1250   14.4470  -31.1110 C   0  0  0  0  0  0  0  0  0  0  0  0
  -35.1390   13.2600  -29.1410 C   0  0  0  0  0  3  0  0  0  0  0  0
  -33.6650   14.4860  -30.6020 C   0  0  0  0  0  2  0  0  0  0  0  0
  -35.0630   14.1340  -30.3240 N   0  0  0  0  0  0  0  0  0  0  0  0
  -37.2520   13.9820  -30.8970 O   0  0  0  0  0  0  0  0  0  0  0  0
  -33.7440   13.3070  -28.4960 C   0  0  0  0  0  2  0  0  0  0  0  0
  -32.8160   13.6580  -29.6390 C   0  0  0  0  0  3  0  0  0  0  0  0
  -32.3920   12.4820  -30.3090 O   0  0  0  0  0  0  0  0  0  0  0  0
  -33.1620   12.0210  -30.6280 H   0  0  0  0  0  0  0  0  0  0  0  0
  -35.9380   15.3700  -32.3430 C   0  0  0  0  0  3  0  0  0  0  0  0
  -36.7020   14.7740  -33.4520 N   0  0  0  0  0  0  0  0  0  0  0  0
  -36.1940   14.2150  -34.5600 C   0  0  0  0  0  0  0  0  0  0  0  0
  -34.9840   14.2160  -34.8010 O   0  0  0  0  0  0  0  0  0  0  0  0
  -37.6980   14.6720  -33.3140 H   0  0  0  0  0  0  0  0  0  0  0  0
  -37.1980   13.5850  -35.4900 C   0  0  1  0  0  0  0  0  0  0  0  0
  -38.4710   13.4790  -34.9540 F   0  0  0  0  0  0  0  0  0  0  0  0
  -37.1000   13.8480  -36.9750 C   0  0  0  0  0  2  0  0  0  0  0  0
  -36.7630   12.4790  -36.4280 C   0  0  0  0  0  2  0  0  0  0  0  0
  -35.6970   17.4720  -30.8590 C   0  0  0  0  0  1  0  0  0  0  0  0
  -35.9750   17.7130  -33.3140 C   0  0  0  0  0  1  0  0  0  0  0  0
  -37.9160   16.9950  -31.9040 C   0  0  0  0  0  1  0  0  0  0  0  0
  -36.3900   16.8570  -32.0980 C   0  0  1  0  0  0  0  0  0  0  0  0
  -38.6150   14.5570  -24.0860 O   0  0  0  0  0  0  0  0  0  0  0  0
  -40.3720   18.7300  -27.8150 N   0  0  0  0  0  0  0  0  0  0  0  0
  -39.9410   19.2140  -29.1730 C   0  0  0  0  0  2  0  0  0  0  0  0
  -41.1070   19.4240  -30.2380 C   0  0  0  0  0  2  0  0  0  0  0  0
  -42.3080   18.6520  -29.8980 N   0  0  0  0  0  0  0  0  0  0  0  0
  -42.7860   18.7670  -28.5210 C   0  0  0  0  0  2  0  0  0  0  0  0
  -41.7000   19.3060  -27.5440 C   0  0  0  0  0  2  0  0  0  0  0  0
  -40.2930   15.9430  -25.3620 C   0  0  0  0  0  3  0  0  0  0  0  0
  -38.1020   16.4540  -25.8590 C   0  0  0  0  0  3  0  0  0  0  0  0
  -38.9410   15.5990  -25.0680 C   0  0  0  0  0  0  0  0  0  0  0  0
  -39.8550   17.6420  -26.9550 C   0  0  0  0  0  0  0  0  0  0  0  0
  -40.7250   16.9150  -26.2430 N   0  0  0  0  0  0  0  0  0  0  0  0
  -38.5420   17.4230  -26.7650 N   0  0  0  0  0  0  0  0  0  0  0  0
  -43.1370   18.0510  -30.8880 C   0  0  0  0  0  0  0  0  0  0  0  0
  -44.4670   18.4680  -31.1320 C   0  0  0  0  0  3  0  0  0  0  0  0
  -45.2580   17.7820  -32.1000 C   0  0  0  0  0  0  0  0  0  0  0  0
  -44.7190   16.7280  -32.7750 N   0  0  0  0  0  0  0  0  0  0  0  0
  -43.4730   16.3050  -32.5510 N   0  0  0  0  0  0  0  0  0  0  0  0
  -42.6990   16.9370  -31.6430 C   0  0  0  0  0  0  0  0  0  0  0  0
  -41.4470   16.3890  -31.4310 N   0  0  0  0  0  0  0  0  0  0  0  0
  -41.0480   16.6870  -30.5510 H   0  0  0  0  0  0  0  0  0  0  0  0
  -41.3670   15.3970  -31.6090 H   0  0  0  0  0  0  0  0  0  0  0  0
  -46.6840   18.1350  -32.4340 C   0  0  0  0  0  0  0  0  0  0  0  0
  -47.5240   17.3890  -33.3290 C   0  0  0  0  0  0  0  0  0  0  0  0
  -48.8570   17.7740  -33.5760 C   0  0  0  0  0  3  0  0  0  0  0  0
  -49.4050   18.9050  -32.9540 C   0  0  0  0  0  3  0  0  0  0  0  0
  -48.6090   19.6600  -32.0830 C   0  0  0  0  0  3  0  0  0  0  0  0
  -47.2770   19.2790  -31.8340 C   0  0  0  0  0  3  0  0  0  0  0  0
  -47.1030   16.2710  -33.9930 O   0  0  0  0  0  0  0  0  0  0  0  0
  -46.1860   16.0880  -33.7910 H   0  0  0  0  0  0  0  0  0  0  0  0
  1  2  1  0
  2  3  2  0
  3  9  1  0
  4  6  2  0
  5  4  1  0
  5  1  2  0
  6  3  1  0
  7 12  1  0
  7 10  1  0
  8 10  2  0
  9 11  1  0
  9  7  2  0
 11  8  1  0
 13  5  1  0
 14 15  2  0
 14 16  1  0
 16 13  1  0
 17 16  1  0
 18 22  2  0
 18 21  1  0
 19 23  1  0
 19 14  1  0
 20 21  1  0
 20 24  1  0
 21 19  1  0
 24 25  1  0
 24 23  1  0
 26 25  1  0
 27 39  1  0
 27 18  1  0
 28 31  1  0
 28 27  1  0
 29 28  1  0
 30 29  2  0
 32 33  1  1
 32 29  1  0
 34 35  1  0
 34 32  1  0
 35 32  1  0
 39 37  1  6
 39 38  1  0
 39 36  1  0
 40  1  1  0
 41 46  1  0
 41 50  1  0
 42 41  1  0
 43 44  1  0
 43 42  1  0
 44 45  1  0
 45 46  1  0
 47 49  2  0
 48 49  1  0
 49 40  1  0
 50 52  1  0
 50 51  2  0
 51 47  1  0
 52 48  2  0
 53 44  1  0
 54 53  1  0
 55 54  2  0
 56 57  2  0
 56 55  1  0
 57 58  1  0
 58 59  1  0
 58 53  2  0
 59 60  1  0
 61 59  1  0
 62 55  1  0
 62 67  1  0
 63 62  2  0
 64 63  1  0
 64 65  2  0
 65 66  1  0
 66 67  2  0
 68 69  1  0
 68 63  1  0
M  ISO  4  40 101  41 100  49 101  50 100
M  END
>  <TORSDO>  (133) 
F 14

>  <SCORE>  (133) 
-14.888

>  <name>  (133) 
132

>  <ligand_id>  (133) 
132

>  <original_smiles>  (133) 
[H]Oc1c([H])c([H])c([H])c([H])c1-c1nnc(N([H])[H])c(N2C([H])([H])C([H])([H])N(c3nc([H])c(Oc4c([H])c(-c5sc([H])nc5C([H])([H])[H])c([H])c([H])c4C([H])([H])N([H])C(=O)C4([H])N(C(=O)C([H])(N([H])C(=O)C5(F)C([H])([H])C5([H])[H])C(C([H])([H])[H])(C([H])([H])[H])C([H])([H])[H])C([H])([H])C([H])(O[H])C4([H])[H])c([H])n3)C([H])([H])C2([H])[H])c1[H]

>  <smiles>  (133) 
[H]Oc1c([H])c([H])c([H])c([H])c1-c1nnc(N([H])[H])c(N2C([H])([H])C([H])([H])N(c3nc([H])c(Oc4c([H])c(-c5sc([H])nc5C([H])([H])[H])c([H])c([H])c4C([H])([H])N([H])C(=O)C4([H])N(C(=O)C([H])(N([H])C(=O)C5(F)C([H])([H])C5([H])[H])C(C([H])([H])[H])(C([H])([H])[H])C([H])([H])[H])C([H])([H])C([H])(O[H])C4([H])[H])c([H])n3)C([H])([H])C2([H])[H])c1[H]

$$$$
133:0:0
     RDKit          3D

 78 86  0  0  1  0  0  0  0  0999 V2000
  -37.3540   13.5090  -23.7180 C   0  0  0  0  0  0  0  0  0  0  0  0
  -36.6420   13.4700  -22.4940 C   0  0  0  0  0  3  0  0  0  0  0  0
  -35.3650   12.8860  -22.3780 C   0  0  0  0  0  0  0  0  0  0  0  0
  -35.4730   12.3680  -24.7630 C   0  0  0  0  0  3  0  0  0  0  0  0
  -36.7800   12.9080  -24.8740 C   0  0  0  0  0  0  0  0  0  0  0  0
  -34.7780   12.3610  -23.5430 C   0  0  0  0  0  3  0  0  0  0  0  0
  -35.1190   12.3370  -19.8580 C   0  0  0  0  0  0  0  0  0  0  0  0
  -32.9540   12.7560  -19.3410 C   0  0  0  0  0  3  0  0  0  0  0  0
  -34.6680   12.7800  -21.0890 C   0  0  0  0  0  0  0  0  0  0  0  0
  -34.1290   12.3290  -18.8740 N   0  0  0  0  0  0  0  0  0  0  0  0
  -32.9740   13.2180  -21.0320 S   0  0  0  0  0  0  0  0  0  0  0  0
  -36.4900   11.8580  -19.4850 C   0  0  0  0  0  1  0  0  0  0  0  0
  -37.5300   12.6520  -26.1880 C   0  0  0  0  0  2  0  0  0  0  0  0
  -36.2000   13.6290  -28.0980 C   0  0  0  0  0  0  0  0  0  0  0  0
  -36.4880   14.8150  -27.9240 O   0  0  0  0  0  0  0  0  0  0  0  0
  -36.6880   12.6120  -27.3770 N   0  0  0  0  0  0  0  0  0  0  0  0
  -36.3910   11.6870  -27.6630 H   0  0  0  0  0  0  0  0  0  0  0  0
  -36.1580   14.4040  -31.1090 C   0  0  0  0  0  0  0  0  0  0  0  0
  -35.1560   13.2230  -29.1460 C   0  0  0  0  0  3  0  0  0  0  0  0
  -33.7000   14.4650  -30.6050 C   0  0  0  0  0  2  0  0  0  0  0  0
  -35.0940   14.1050  -30.3220 N   0  0  0  0  0  0  0  0  0  0  0  0
  -37.2770   13.9280  -30.8960 O   0  0  0  0  0  0  0  0  0  0  0  0
  -33.7600   13.2700  -28.5070 C   0  0  0  0  0  2  0  0  0  0  0  0
  -32.8380   13.6410  -29.6450 C   0  0  0  0  0  3  0  0  0  0  0  0
  -32.3980   12.4740  -30.3230 O   0  0  0  0  0  0  0  0  0  0  0  0
  -33.1660   12.0050  -30.6330 H   0  0  0  0  0  0  0  0  0  0  0  0
  -35.9850   15.3310  -32.3420 C   0  0  0  0  0  3  0  0  0  0  0  0
  -35.8480   17.4160  -30.8230 C   0  0  0  0  0  1  0  0  0  0  0  0
  -36.0280   17.6870  -33.2850 C   0  0  0  0  0  1  0  0  0  0  0  0
  -38.0090   16.9140  -31.9660 C   0  0  0  0  0  1  0  0  0  0  0  0
  -36.4750   16.8050  -32.0990 C   0  0  1  0  0  0  0  0  0  0  0  0
  -36.7200   14.7190  -33.4640 N   0  0  0  0  0  0  0  0  0  0  0  0
  -36.1910   14.2020  -34.5820 C   0  0  0  0  0  0  0  0  0  0  0  0
  -34.9830   14.2650  -34.8270 O   0  0  0  0  0  0  0  0  0  0  0  0
  -37.7120   14.5700  -33.3310 H   0  0  0  0  0  0  0  0  0  0  0  0
  -37.1690   13.5410  -35.5160 C   0  0  1  0  0  0  0  0  0  0  0  0
  -38.4290   13.3550  -34.9700 F   0  0  0  0  0  0  0  0  0  0  0  0
  -37.0990   13.8350  -36.9960 C   0  0  0  0  0  2  0  0  0  0  0  0
  -36.6830   12.4770  -36.4770 C   0  0  0  0  0  2  0  0  0  0  0  0
  -38.6050   14.0730  -23.5740 O   0  0  0  0  0  0  0  0  0  0  0  0
  -38.3510   20.5690  -26.0240 C   0  0  0  0  0  2  0  0  0  0  0  0
  -40.4930   20.7260  -24.9670 C   0  0  0  0  0  3  0  0  0  0  0  0
  -39.6200   21.1660  -25.9650 C   0  0  0  0  0  3  0  0  0  0  0  0
  -39.0980   18.9810  -24.5500 C   0  0  0  0  0  0  0  0  0  0  0  0
  -40.4600   15.4660  -23.7420 C   0  0  0  0  0  3  0  0  0  0  0  0
  -38.7070   15.6290  -25.5250 C   0  0  0  0  0  2  0  0  0  0  0  0
  -40.3290   17.0150  -23.7050 C   0  0  0  0  0  3  0  0  0  0  0  0
  -38.0480   16.7390  -24.7250 C   0  0  0  0  0  2  0  0  0  0  0  0
  -39.4290   14.6730  -24.5710 C   0  0  0  0  0  3  0  0  0  0  0  0
  -38.1090   19.4550  -25.3100 N   0  0  0  0  0  0  0  0  0  0  0  0
  -40.2230   19.6220  -24.2680 N   0  0  0  0  0  0  0  0  0  0  0  0
  -39.0710   17.6320  -24.1860 N   0  0  0  0  0  0  0  0  0  0  0  0
  -40.1260   22.0800  -27.0530 C   0  0  0  0  0  2  0  0  0  0  0  0
  -40.4060   19.9260  -28.4400 N   0  0  0  0  0  0  0  0  0  0  0  0
  -39.9370   19.3250  -29.6890 C   0  0  0  0  0  2  0  0  0  0  0  0
  -41.0800   19.2410  -30.7250 C   0  0  0  0  0  2  0  0  0  0  0  0
  -42.2780   18.6140  -30.1530 N   0  0  0  0  0  0  0  0  0  0  0  0
  -42.7070   19.0470  -28.8270 C   0  0  0  0  0  2  0  0  0  0  0  0
  -41.5080   19.1640  -27.8620 C   0  0  0  0  0  2  0  0  0  0  0  0
  -40.3820   21.2970  -28.3770 C   0  0  0  0  0  0  0  0  0  0  0  0
  -40.4190   21.9850  -29.4010 O   0  0  0  0  0  0  0  0  0  0  0  0
  -43.2010   18.0260  -31.0510 C   0  0  0  0  0  0  0  0  0  0  0  0
  -44.5140   18.5150  -31.2510 C   0  0  0  0  0  3  0  0  0  0  0  0
  -45.3650   17.8420  -32.1700 C   0  0  0  0  0  0  0  0  0  0  0  0
  -44.9010   16.7440  -32.8340 N   0  0  0  0  0  0  0  0  0  0  0  0
  -43.6720   16.2540  -32.6400 N   0  0  0  0  0  0  0  0  0  0  0  0
  -42.8410   16.8730  -31.7850 C   0  0  0  0  0  0  0  0  0  0  0  0
  -41.5970   16.2860  -31.5970 N   0  0  0  0  0  0  0  0  0  0  0  0
  -41.1320   16.6650  -30.7840 H   0  0  0  0  0  0  0  0  0  0  0  0
  -41.5560   15.2790  -31.6740 H   0  0  0  0  0  0  0  0  0  0  0  0
  -46.7790   18.2620  -32.4750 C   0  0  0  0  0  0  0  0  0  0  0  0
  -47.6550   17.5670  -33.3680 C   0  0  0  0  0  0  0  0  0  0  0  0
  -48.9760   18.0010  -33.5920 C   0  0  0  0  0  3  0  0  0  0  0  0
  -49.4720   19.1370  -32.9420 C   0  0  0  0  0  3  0  0  0  0  0  0
  -48.6370   19.8530  -32.0740 C   0  0  0  0  0  3  0  0  0  0  0  0
  -47.3160   19.4170  -31.8500 C   0  0  0  0  0  3  0  0  0  0  0  0
  -47.2810   16.4450  -34.0480 O   0  0  0  0  0  0  0  0  0  0  0  0
  -46.3690   16.2350  -33.8430 H   0  0  0  0  0  0  0  0  0  0  0  0
  1 40  1  0
  1  2  1  0
  2  3  2  0
  3  9  1  0
  4  6  2  0
  5  4  1  0
  5  1  2  0
  6  3  1  0
  7 12  1  0
  7 10  1  0
  8 10  2  0
  9 11  1  0
  9  7  2  0
 11  8  1  0
 13  5  1  0
 14 15  2  0
 14 16  1  0
 16 13  1  0
 17 16  1  0
 18 22  2  0
 18 21  1  0
 19 23  1  0
 19 14  1  0
 20 21  1  0
 20 24  1  0
 21 19  1  0
 24 25  1  0
 24 23  1  0
 26 25  1  0
 27 31  1  0
 27 18  1  0
 31 29  1  6
 31 30  1  0
 31 28  1  0
 32 35  1  0
 32 27  1  0
 33 32  1  0
 34 33  2  0
 36 37  1  1
 36 33  1  0
 38 39  1  0
 38 36  1  0
 39 36  1  0
 41 43  1  0
 41 50  1  0
 42 51  2  0
 43 53  1  0
 43 42  1  0
 44 51  1  0
 44 52  1  0
 45 47  2  0
 46 48  1  0
 46 49  1  0
 48 52  1  0
 49 45  1  0
 49 40  1  0
 50 44  2  0
 52 47  1  0
 54 60  1  0
 54 59  1  0
 55 54  1  0
 56 57  1  0
 56 55  1  0
 57 58  1  0
 58 59  1  0
 60 53  1  0
 61 60  2  0
 62 57  1  0
 63 62  1  0
 64 63  2  0
 65 66  2  0
 65 64  1  0
 66 67  1  0
 67 68  1  0
 67 62  2  0
 68 69  1  0
 70 68  1  0
 71 64  1  0
 71 76  1  0
 72 71  2  0
 73 72  1  0
 73 74  2  0
 74 75  1  0
 75 76  2  0
 77 78  1  0
 77 72  1  0
M  ISO  4  40 101  49 101  54 100  60 100
M  END
>  <TORSDO>  (134) 
F 16

>  <SCORE>  (134) 
-14.645

>  <name>  (134) 
133

>  <ligand_id>  (134) 
133

>  <original_smiles>  (134) 
[H]Oc1c([H])c([H])c([H])c([H])c1-c1nnc(N([H])[H])c(N2C([H])([H])C([H])([H])N(C(=O)C([H])([H])c3c([H])nc(N4C([H])([H])C([H])([H])C([H])(Oc5c([H])c(-c6sc([H])nc6C([H])([H])[H])c([H])c([H])c5C([H])([H])N([H])C(=O)C5([H])N(C(=O)C([H])(N([H])C(=O)C6(F)C([H])([H])C6([H])[H])C(C([H])([H])[H])(C([H])([H])[H])C([H])([H])[H])C([H])([H])C([H])(O[H])C5([H])[H])C([H])([H])C4([H])[H])nc3[H])C([H])([H])C2([H])[H])c1[H]

>  <smiles>  (134) 
[H]Oc1c([H])c([H])c([H])c([H])c1-c1nnc(N([H])[H])c(N2C([H])([H])C([H])([H])N(C(=O)C([H])([H])c3c([H])nc(N4C([H])([H])C([H])([H])C([H])(Oc5c([H])c(-c6sc([H])nc6C([H])([H])[H])c([H])c([H])c5C([H])([H])N([H])C(=O)C5([H])N(C(=O)C([H])(N([H])C(=O)C6(F)C([H])([H])C6([H])[H])C(C([H])([H])[H])(C([H])([H])[H])C([H])([H])[H])C([H])([H])C([H])(O[H])C5([H])[H])C([H])([H])C4([H])[H])nc3[H])C([H])([H])C2([H])[H])c1[H]

$$$$
134:0:0
     RDKit          3D

 79 87  0  0  1  0  0  0  0  0999 V2000
  -38.7190   13.9340  -23.7460 O   0  0  0  0  0  0  0  0  0  0  0  0
  -42.9350   14.0280  -25.0190 C   0  0  0  0  0  3  0  0  0  0  0  0
  -42.8840   14.5730  -26.3130 C   0  0  0  0  0  3  0  0  0  0  0  0
  -41.8960   13.1540  -24.6420 C   0  0  0  0  0  0  0  0  0  0  0  0
  -41.7860   14.1990  -27.1110 C   0  0  0  0  0  0  0  0  0  0  0  0
  -39.6580   12.2980  -22.1080 C   0  0  0  0  0  2  0  0  0  0  0  0
  -40.8920   11.7880  -22.8560 C   0  0  0  0  0  2  0  0  0  0  0  0
  -40.9590   14.1550  -22.7640 C   0  0  0  0  0  2  0  0  0  0  0  0
  -39.4940   13.7660  -22.5390 C   0  0  0  0  0  3  0  0  0  0  0  0
  -40.9760   12.7060  -25.5290 N   0  0  0  0  0  0  0  0  0  0  0  0
  -40.9150   13.2300  -26.7550 N   0  0  0  0  0  0  0  0  0  0  0  0
  -41.6490   12.9680  -23.2780 N   0  0  0  0  0  0  0  0  0  0  0  0
  -41.3340   15.0490  -28.1060 N   0  0  0  0  0  0  0  0  0  0  0  0
  -42.1040   15.4350  -28.6380 H   0  0  0  0  0  0  0  0  0  0  0  0
  -40.6070   16.1200  -27.4270 C   0  0  0  0  0  2  0  0  0  0  0  0
  -39.6930   16.9010  -28.3610 C   0  0  0  0  0  2  0  0  0  0  0  0
  -39.3550   18.2880  -27.7900 C   0  0  0  0  0  2  0  0  0  0  0  0
  -40.1350   19.3730  -28.3920 N   0  0  0  0  0  0  0  0  0  0  0  0
  -39.9190   19.5510  -29.8390 C   0  0  0  0  0  2  0  0  0  0  0  0
  -41.2270   19.6060  -30.6730 C   0  0  0  0  0  2  0  0  0  0  0  0
  -42.2140   18.6680  -30.1520 N   0  0  0  0  0  0  0  0  0  0  0  0
  -42.5980   18.8480  -28.7550 C   0  0  0  0  0  2  0  0  0  0  0  0
  -41.5160   19.6130  -27.9400 C   0  0  0  0  0  2  0  0  0  0  0  0
  -43.1150   18.0400  -31.0370 C   0  0  0  0  0  0  0  0  0  0  0  0
  -44.4220   18.5190  -31.2620 C   0  0  0  0  0  3  0  0  0  0  0  0
  -45.2730   17.8220  -32.1620 C   0  0  0  0  0  0  0  0  0  0  0  0
  -44.8050   16.7100  -32.8020 N   0  0  0  0  0  0  0  0  0  0  0  0
  -43.5740   16.2400  -32.5980 N   0  0  0  0  0  0  0  0  0  0  0  0
  -42.7480   16.8710  -31.7400 C   0  0  0  0  0  0  0  0  0  0  0  0
  -41.5050   16.2990  -31.5570 N   0  0  0  0  0  0  0  0  0  0  0  0
  -40.8520   16.8930  -31.0670 H   0  0  0  0  0  0  0  0  0  0  0  0
  -41.1280   15.7700  -32.3300 H   0  0  0  0  0  0  0  0  0  0  0  0
  -46.6900   18.2260  -32.4600 C   0  0  0  0  0  0  0  0  0  0  0  0
  -47.5760   17.5070  -33.3310 C   0  0  0  0  0  0  0  0  0  0  0  0
  -48.9010   17.9410  -33.5450 C   0  0  0  0  0  3  0  0  0  0  0  0
  -49.3910   19.0900  -32.9120 C   0  0  0  0  0  3  0  0  0  0  0  0
  -48.5480   19.8220  -32.0680 C   0  0  0  0  0  3  0  0  0  0  0  0
  -47.2250   19.3940  -31.8500 C   0  0  0  0  0  3  0  0  0  0  0  0
  -47.2130   16.3700  -33.9970 O   0  0  0  0  0  0  0  0  0  0  0  0
  -46.2970   16.1500  -33.8200 H   0  0  0  0  0  0  0  0  0  0  0  0
  -37.4020   13.5060  -23.6970 C   0  0  0  0  0  0  0  0  0  0  0  0
  -36.6700   13.4840  -22.4830 C   0  0  0  0  0  3  0  0  0  0  0  0
  -35.3840   12.9140  -22.4050 C   0  0  0  0  0  0  0  0  0  0  0  0
  -35.4860   12.4630  -24.8010 C   0  0  0  0  0  3  0  0  0  0  0  0
  -36.7910   13.0040  -24.8730 C   0  0  0  0  0  0  0  0  0  0  0  0
  -34.7920   12.4180  -23.5820 C   0  0  0  0  0  3  0  0  0  0  0  0
  -35.1600   12.3280  -19.9040 C   0  0  0  0  0  0  0  0  0  0  0  0
  -33.0110   12.7810  -19.3440 C   0  0  0  0  0  3  0  0  0  0  0  0
  -34.6970   12.7960  -21.1200 C   0  0  0  0  0  0  0  0  0  0  0  0
  -34.1840   12.3220  -18.9040 N   0  0  0  0  0  0  0  0  0  0  0  0
  -33.0170   13.2710  -21.0270 S   0  0  0  0  0  0  0  0  0  0  0  0
  -36.5240   11.8210  -19.5530 C   0  0  0  0  0  1  0  0  0  0  0  0
  -37.5630   12.9890  -26.1920 C   0  0  0  0  0  2  0  0  0  0  0  0
  -36.1900   13.7190  -28.1220 C   0  0  0  0  0  0  0  0  0  0  0  0
  -36.4490   14.9160  -27.9770 O   0  0  0  0  0  0  0  0  0  0  0  0
  -36.7250   12.7580  -27.3640 N   0  0  0  0  0  0  0  0  0  0  0  0
  -36.4650   11.8020  -27.5560 H   0  0  0  0  0  0  0  0  0  0  0  0
  -36.1140   14.4380  -31.1450 C   0  0  0  0  0  0  0  0  0  0  0  0
  -35.1470   13.2660  -29.1580 C   0  0  0  0  0  3  0  0  0  0  0  0
  -33.6570   14.4770  -30.6290 C   0  0  0  0  0  2  0  0  0  0  0  0
  -35.0570   14.1310  -30.3500 N   0  0  0  0  0  0  0  0  0  0  0  0
  -37.2400   13.9710  -30.9370 O   0  0  0  0  0  0  0  0  0  0  0  0
  -33.7470   13.3010  -28.5190 C   0  0  0  0  0  2  0  0  0  0  0  0
  -32.8130   13.6520  -29.6600 C   0  0  0  0  0  3  0  0  0  0  0  0
  -32.3850   12.4750  -30.3280 O   0  0  0  0  0  0  0  0  0  0  0  0
  -33.1540   12.0120  -30.6430 H   0  0  0  0  0  0  0  0  0  0  0  0
  -35.9220   15.3550  -32.3820 C   0  0  0  0  0  3  0  0  0  0  0  0
  -35.7190   17.4510  -30.8840 C   0  0  0  0  0  1  0  0  0  0  0  0
  -35.9320   17.7050  -33.3430 C   0  0  0  0  0  1  0  0  0  0  0  0
  -37.9030   16.9820  -31.9880 C   0  0  0  0  0  1  0  0  0  0  0  0
  -36.3760   16.8420  -32.1440 C   0  0  1  0  0  0  0  0  0  0  0  0
  -36.6800   14.7560  -33.4940 N   0  0  0  0  0  0  0  0  0  0  0  0
  -36.1690   14.2150  -34.6090 C   0  0  0  0  0  0  0  0  0  0  0  0
  -34.9590   14.2360  -34.8520 O   0  0  0  0  0  0  0  0  0  0  0  0
  -37.6740   14.6370  -33.3540 H   0  0  0  0  0  0  0  0  0  0  0  0
  -37.1650   13.5800  -35.5410 C   0  0  1  0  0  0  0  0  0  0  0  0
  -38.4370   13.4490  -35.0010 F   0  0  0  0  0  0  0  0  0  0  0  0
  -37.0780   13.8550  -37.0230 C   0  0  0  0  0  2  0  0  0  0  0  0
  -36.7190   12.4880  -36.4880 C   0  0  0  0  0  2  0  0  0  0  0  0
  1 41  1  0
  2  4  1  0
  3  2  2  0
  4 12  1  0
  5 11  2  0
  5  3  1  0
  7  6  1  0
  8  9  1  0
  9  1  1  0
  9  6  1  0
 10  4  2  0
 11 10  1  0
 12  7  1  0
 12  8  1  0
 13 15  1  0
 13  5  1  0
 14 13  1  0
 16 17  1  0
 16 15  1  0
 18 23  1  0
 18 17  1  0
 19 18  1  0
 20 21  1  0
 20 19  1  0
 21 22  1  0
 22 23  1  0
 24 21  1  0
 25 24  1  0
 26 25  2  0
 27 28  2  0
 27 26  1  0
 28 29  1  0
 29 30  1  0
 29 24  2  0
 30 31  1  0
 32 30  1  0
 33 26  1  0
 33 38  1  0
 34 33  2  0
 35 34  1  0
 35 36  2  0
 36 37  1  0
 37 38  2  0
 39 40  1  0
 39 34  1  0
 41 42  1  0
 42 43  2  0
 43 49  1  0
 44 46  2  0
 45 44  1  0
 45 41  2  0
 46 43  1  0
 47 52  1  0
 47 50  1  0
 48 50  2  0
 49 51  1  0
 49 47  2  0
 51 48  1  0
 53 45  1  0
 54 55  2  0
 54 56  1  0
 56 53  1  0
 57 56  1  0
 58 62  2  0
 58 61  1  0
 59 63  1  0
 59 54  1  0
 60 61  1  0
 60 64  1  0
 61 59  1  0
 64 65  1  0
 64 63  1  0
 66 65  1  0
 67 71  1  0
 67 58  1  0
 71 69  1  6
 71 70  1  0
 71 68  1  0
 72 75  1  0
 72 67  1  0
 73 72  1  0
 74 73  2  0
 76 77  1  1
 76 73  1  0
 78 79  1  0
 78 76  1  0
 79 76  1  0
M  ISO  4   1 101   9 101  17 100  18 100
M  END
>  <TORSDO>  (135) 
F 18

>  <SCORE>  (135) 
-14.540

>  <name>  (135) 
134

>  <ligand_id>  (135) 
134

>  <original_smiles>  (135) 
[H]Oc1c([H])c([H])c([H])c([H])c1-c1nnc(N([H])[H])c(N2C([H])([H])C([H])([H])N(C([H])([H])C([H])([H])C([H])([H])N([H])c3nnc(N4C([H])([H])C([H])([H])C([H])(Oc5c([H])c(-c6sc([H])nc6C([H])([H])[H])c([H])c([H])c5C([H])([H])N([H])C(=O)C5([H])N(C(=O)C([H])(N([H])C(=O)C6(F)C([H])([H])C6([H])[H])C(C([H])([H])[H])(C([H])([H])[H])C([H])([H])[H])C([H])([H])C([H])(O[H])C5([H])[H])C4([H])[H])c([H])c3[H])C([H])([H])C2([H])[H])c1[H]

>  <smiles>  (135) 
[H]Oc1c([H])c([H])c([H])c([H])c1-c1nnc(N([H])[H])c(N2C([H])([H])C([H])([H])N(C([H])([H])C([H])([H])C([H])([H])N([H])c3nnc(N4C([H])([H])C([H])([H])C([H])(Oc5c([H])c(-c6sc([H])nc6C([H])([H])[H])c([H])c([H])c5C([H])([H])N([H])C(=O)C5([H])N(C(=O)C([H])(N([H])C(=O)C6(F)C([H])([H])C6([H])[H])C(C([H])([H])[H])(C([H])([H])[H])C([H])([H])[H])C([H])([H])C([H])(O[H])C5([H])[H])C4([H])[H])c([H])c3[H])C([H])([H])C2([H])[H])c1[H]

$$$$
135:0:0
     RDKit          3D

 79 87  0  0  1  0  0  0  0  0999 V2000
  -38.6660   14.0000  -23.8370 O   0  0  0  0  0  0  0  0  0  0  0  0
  -37.3910   13.4900  -23.6960 C   0  0  0  0  0  0  0  0  0  0  0  0
  -36.6790   13.4220  -22.4710 C   0  0  0  0  0  3  0  0  0  0  0  0
  -35.4050   12.8210  -22.3910 C   0  0  0  0  0  0  0  0  0  0  0  0
  -35.5140   12.3670  -24.7890 C   0  0  0  0  0  3  0  0  0  0  0  0
  -36.7990   12.9460  -24.8620 C   0  0  0  0  0  0  0  0  0  0  0  0
  -34.8250   12.3080  -23.5680 C   0  0  0  0  0  3  0  0  0  0  0  0
  -35.1820   12.2180  -19.8940 C   0  0  0  0  0  0  0  0  0  0  0  0
  -33.0200   12.6110  -19.3420 C   0  0  0  0  0  3  0  0  0  0  0  0
  -34.7140   12.6790  -21.1100 C   0  0  0  0  0  0  0  0  0  0  0  0
  -34.2030   12.1850  -18.8980 N   0  0  0  0  0  0  0  0  0  0  0  0
  -33.0190   13.1070  -21.0220 S   0  0  0  0  0  0  0  0  0  0  0  0
  -36.5570   11.7430  -19.5430 C   0  0  0  0  0  1  0  0  0  0  0  0
  -37.5770   12.9580  -26.1810 C   0  0  0  0  0  2  0  0  0  0  0  0
  -36.2030   13.7110  -28.1030 C   0  0  0  0  0  0  0  0  0  0  0  0
  -36.4600   14.9060  -27.9420 O   0  0  0  0  0  0  0  0  0  0  0  0
  -36.7460   12.7420  -27.3590 N   0  0  0  0  0  0  0  0  0  0  0  0
  -36.5030   11.7860  -27.5770 H   0  0  0  0  0  0  0  0  0  0  0  0
  -36.1490   14.4410  -31.1250 C   0  0  0  0  0  0  0  0  0  0  0  0
  -35.1660   13.2630  -29.1460 C   0  0  0  0  0  3  0  0  0  0  0  0
  -33.6910   14.4830  -30.6220 C   0  0  0  0  0  2  0  0  0  0  0  0
  -35.0880   14.1310  -30.3360 N   0  0  0  0  0  0  0  0  0  0  0  0
  -37.2740   13.9720  -30.9110 O   0  0  0  0  0  0  0  0  0  0  0  0
  -33.7630   13.3020  -28.5150 C   0  0  0  0  0  2  0  0  0  0  0  0
  -32.8380   13.6590  -29.6600 C   0  0  0  0  0  3  0  0  0  0  0  0
  -32.4090   12.4860  -30.3340 O   0  0  0  0  0  0  0  0  0  0  0  0
  -33.1770   12.0200  -30.6470 H   0  0  0  0  0  0  0  0  0  0  0  0
  -35.9670   15.3660  -32.3580 C   0  0  0  0  0  3  0  0  0  0  0  0
  -35.7690   17.4600  -30.8580 C   0  0  0  0  0  1  0  0  0  0  0  0
  -35.9960   17.7140  -33.3170 C   0  0  0  0  0  1  0  0  0  0  0  0
  -37.9630   16.9790  -31.9510 C   0  0  0  0  0  1  0  0  0  0  0  0
  -36.4330   16.8480  -32.1160 C   0  0  1  0  0  0  0  0  0  0  0  0
  -36.7190   14.7620  -33.4700 N   0  0  0  0  0  0  0  0  0  0  0  0
  -36.2050   14.2190  -34.5830 C   0  0  0  0  0  0  0  0  0  0  0  0
  -34.9940   14.2430  -34.8240 O   0  0  0  0  0  0  0  0  0  0  0  0
  -37.7140   14.6410  -33.3310 H   0  0  0  0  0  0  0  0  0  0  0  0
  -37.1960   13.5760  -35.5160 C   0  0  1  0  0  0  0  0  0  0  0  0
  -38.4670   13.4430  -34.9790 F   0  0  0  0  0  0  0  0  0  0  0  0
  -37.1060   13.8490  -36.9990 C   0  0  0  0  0  2  0  0  0  0  0  0
  -36.7420   12.4840  -36.4600 C   0  0  0  0  0  2  0  0  0  0  0  0
  -39.2550   14.8530  -22.8590 C   0  0  0  0  0  2  0  0  0  0  0  0
  -40.5730   16.9810  -23.3180 C   0  0  0  0  0  3  0  0  0  0  0  0
  -38.3060   16.8940  -24.0270 C   0  0  0  0  0  3  0  0  0  0  0  0
  -39.3800   16.2540  -23.4040 C   0  0  0  0  0  0  0  0  0  0  0  0
  -39.6110   18.7240  -24.4360 C   0  0  0  0  0  0  0  0  0  0  0  0
  -38.7440   21.9800  -26.2180 C   0  0  0  0  0  2  0  0  0  0  0  0
  -38.5040   20.6600  -25.4760 C   0  0  0  0  0  2  0  0  0  0  0  0
  -40.9810   20.7600  -24.8550 C   0  0  0  0  0  2  0  0  0  0  0  0
  -40.0730   21.9630  -26.9870 C   0  0  0  0  0  3  0  0  0  0  0  0
  -41.1990   21.8560  -25.9300 C   0  0  0  0  0  3  0  0  0  0  0  0
  -42.6420   22.0440  -26.4410 C   0  0  0  0  0  1  0  0  0  0  0  0
  -40.6820   18.2150  -23.8420 N   0  0  0  0  0  0  0  0  0  0  0  0
  -38.4310   18.1280  -24.5410 N   0  0  0  0  0  0  0  0  0  0  0  0
  -39.7310   19.9930  -25.0080 N   0  0  0  0  0  0  0  0  0  0  0  0
  -40.3630   19.8130  -28.4930 N   0  0  0  0  0  0  0  0  0  0  0  0
  -40.0210   19.2030  -29.7840 C   0  0  0  0  0  2  0  0  0  0  0  0
  -41.2140   19.3640  -30.7390 C   0  0  0  0  0  2  0  0  0  0  0  0
  -42.3260   18.6110  -30.1760 N   0  0  0  0  0  0  0  0  0  0  0  0
  -42.7290   18.9410  -28.8130 C   0  0  0  0  0  2  0  0  0  0  0  0
  -41.5140   19.1570  -27.8670 C   0  0  0  0  0  2  0  0  0  0  0  0
  -39.9550   21.1080  -28.2900 C   0  0  0  0  0  0  0  0  0  0  0  0
  -39.3400   21.6980  -29.1850 O   0  0  0  0  0  0  0  0  0  0  0  0
  -43.2400   18.0080  -31.0660 C   0  0  0  0  0  0  0  0  0  0  0  0
  -44.5420   18.5070  -31.2750 C   0  0  0  0  0  3  0  0  0  0  0  0
  -45.4010   17.8350  -32.1850 C   0  0  0  0  0  0  0  0  0  0  0  0
  -44.9550   16.7210  -32.8330 N   0  0  0  0  0  0  0  0  0  0  0  0
  -43.7310   16.2240  -32.6340 N   0  0  0  0  0  0  0  0  0  0  0  0
  -42.8900   16.8390  -31.7810 C   0  0  0  0  0  0  0  0  0  0  0  0
  -41.6610   16.2340  -31.5900 N   0  0  0  0  0  0  0  0  0  0  0  0
  -41.2070   16.5570  -30.7450 H   0  0  0  0  0  0  0  0  0  0  0  0
  -41.6370   15.2320  -31.7190 H   0  0  0  0  0  0  0  0  0  0  0  0
  -46.8090   18.2710  -32.4840 C   0  0  0  0  0  0  0  0  0  0  0  0
  -47.7200   17.5570  -33.3290 C   0  0  0  0  0  0  0  0  0  0  0  0
  -49.0340   18.0180  -33.5460 C   0  0  0  0  0  3  0  0  0  0  0  0
  -49.4890   19.1960  -32.9370 C   0  0  0  0  0  3  0  0  0  0  0  0
  -48.6200   19.9230  -32.1130 C   0  0  0  0  0  3  0  0  0  0  0  0
  -47.3070   19.4660  -31.8960 C   0  0  0  0  0  3  0  0  0  0  0  0
  -47.3890   16.3970  -33.9730 O   0  0  0  0  0  0  0  0  0  0  0  0
  -46.4780   16.1650  -33.7920 H   0  0  0  0  0  0  0  0  0  0  0  0
  1  2  1  0
  1 41  1  0
  2  3  1  0
  3  4  2  0
  4 10  1  0
  5  7  2  0
  6  5  1  0
  6  2  2  0
  7  4  1  0
  8 13  1  0
  8 11  1  0
  9 11  2  0
 10 12  1  0
 10  8  2  0
 12  9  1  0
 14  6  1  0
 15 16  2  0
 15 17  1  0
 17 14  1  0
 18 17  1  0
 19 23  2  0
 19 22  1  0
 20 24  1  0
 20 15  1  0
 21 22  1  0
 21 25  1  0
 22 20  1  0
 25 26  1  0
 25 24  1  0
 27 26  1  0
 28 32  1  0
 28 19  1  0
 32 30  1  6
 32 31  1  0
 32 29  1  0
 33 36  1  0
 33 28  1  0
 34 33  1  0
 35 34  2  0
 37 38  1  1
 37 34  1  0
 39 40  1  0
 39 37  1  0
 40 37  1  0
 43 44  1  0
 44 42  2  0
 44 41  1  0
 45 52  2  0
 46 47  1  0
 47 54  1  0
 49 61  1  0
 49 46  1  0
 49 50  1  0
 50 51  1  0
 50 48  1  0
 52 42  1  0
 53 45  1  0
 53 43  2  0
 54 48  1  0
 54 45  1  0
 55 61  1  0
 55 60  1  0
 56 55  1  0
 57 58  1  0
 57 56  1  0
 58 59  1  0
 59 60  1  0
 62 61  2  0
 63 58  1  0
 64 63  1  0
 65 64  2  0
 66 67  2  0
 66 65  1  0
 67 68  1  0
 68 69  1  0
 68 63  2  0
 69 70  1  0
 71 69  1  0
 72 65  1  0
 72 77  1  0
 73 72  2  0
 74 73  1  0
 74 75  2  0
 75 76  1  0
 76 77  2  0
 78 79  1  0
 78 73  1  0
M  ISO  4   1 101  41 101  55 100  61 100
M  END
>  <TORSDO>  (136) 
F 16

>  <SCORE>  (136) 
-14.597

>  <name>  (136) 
135

>  <ligand_id>  (136) 
135

>  <original_smiles>  (136) 
[H]Oc1c([H])c([H])c([H])c([H])c1-c1nnc(N([H])[H])c(N2C([H])([H])C([H])([H])N(C(=O)C3([H])C([H])([H])C([H])([H])N(c4nc([H])c(C([H])([H])Oc5c([H])c(-c6sc([H])nc6C([H])([H])[H])c([H])c([H])c5C([H])([H])N([H])C(=O)C5([H])N(C(=O)C([H])(N([H])C(=O)C6(F)C([H])([H])C6([H])[H])C(C([H])([H])[H])(C([H])([H])[H])C([H])([H])[H])C([H])([H])C([H])(O[H])C5([H])[H])c([H])n4)C([H])([H])C3([H])C([H])([H])[H])C([H])([H])C2([H])[H])c1[H]

>  <smiles>  (136) 
[H]Oc1c([H])c([H])c([H])c([H])c1-c1nnc(N([H])[H])c(N2C([H])([H])C([H])([H])N(C(=O)C3([H])C([H])([H])C([H])([H])N(c4nc([H])c(C([H])([H])Oc5c([H])c(-c6sc([H])nc6C([H])([H])[H])c([H])c([H])c5C([H])([H])N([H])C(=O)C5([H])N(C(=O)C([H])(N([H])C(=O)C6(F)C([H])([H])C6([H])[H])C(C([H])([H])[H])(C([H])([H])[H])C([H])([H])[H])C([H])([H])C([H])(O[H])C5([H])[H])c([H])n4)C([H])([H])C3([H])C([H])([H])[H])C([H])([H])C2([H])[H])c1[H]

$$$$
136:0:0
     RDKit          3D

 72 80  0  0  1  0  0  0  0  0999 V2000
  -37.3960   13.7980  -23.8870 C   0  0  0  0  0  0  0  0  0  0  0  0
  -36.7600   13.6630  -22.5950 C   0  0  0  0  0  3  0  0  0  0  0  0
  -35.5410   12.9210  -22.3960 C   0  0  0  0  0  0  0  0  0  0  0  0
  -35.6290   12.3060  -24.7520 C   0  0  0  0  0  3  0  0  0  0  0  0
  -36.8490   13.0050  -24.9260 C   0  0  0  0  0  0  0  0  0  0  0  0
  -34.9690   12.2900  -23.5160 C   0  0  0  0  0  3  0  0  0  0  0  0
  -35.2690   12.2980  -19.8770 C   0  0  0  0  0  0  0  0  0  0  0  0
  -33.0850   12.6320  -19.3540 C   0  0  0  0  0  3  0  0  0  0  0  0
  -34.8290   12.7670  -21.1020 C   0  0  0  0  0  0  0  0  0  0  0  0
  -34.2720   12.2370  -18.8930 N   0  0  0  0  0  0  0  0  0  0  0  0
  -33.1080   13.1240  -21.0380 S   0  0  0  0  0  0  0  0  0  0  0  0
  -36.6380   11.8380  -19.4980 C   0  0  0  0  0  1  0  0  0  0  0  0
  -37.6130   12.8480  -26.2330 C   0  0  0  0  0  2  0  0  0  0  0  0
  -36.1930   13.6660  -28.0810 C   0  0  0  0  0  0  0  0  0  0  0  0
  -36.4480   14.8560  -27.8970 O   0  0  0  0  0  0  0  0  0  0  0  0
  -36.7460   12.6750  -27.3820 N   0  0  0  0  0  0  0  0  0  0  0  0
  -36.4940   11.7260  -27.6240 H   0  0  0  0  0  0  0  0  0  0  0  0
  -36.1400   14.4240  -31.0840 C   0  0  0  0  0  0  0  0  0  0  0  0
  -35.1470   13.2400  -29.1170 C   0  0  0  0  0  3  0  0  0  0  0  0
  -33.6810   14.4790  -30.5770 C   0  0  0  0  0  2  0  0  0  0  0  0
  -35.0760   14.1170  -30.2990 N   0  0  0  0  0  0  0  0  0  0  0  0
  -37.2640   13.9500  -30.8740 O   0  0  0  0  0  0  0  0  0  0  0  0
  -33.7510   13.2900  -28.4760 C   0  0  0  0  0  2  0  0  0  0  0  0
  -32.8260   13.6530  -29.6170 C   0  0  0  0  0  3  0  0  0  0  0  0
  -32.3940   12.4830  -30.2930 O   0  0  0  0  0  0  0  0  0  0  0  0
  -33.1600   12.0170  -30.6100 H   0  0  0  0  0  0  0  0  0  0  0  0
  -35.9600   15.3540  -32.3140 C   0  0  0  0  0  3  0  0  0  0  0  0
  -36.7220   14.7580  -33.4240 N   0  0  0  0  0  0  0  0  0  0  0  0
  -36.2160   14.2120  -34.5390 C   0  0  0  0  0  0  0  0  0  0  0  0
  -35.0070   14.2260  -34.7850 O   0  0  0  0  0  0  0  0  0  0  0  0
  -37.7160   14.6450  -33.2810 H   0  0  0  0  0  0  0  0  0  0  0  0
  -37.2160   13.5800  -35.4690 C   0  0  1  0  0  0  0  0  0  0  0  0
  -38.4860   13.4580  -34.9270 F   0  0  0  0  0  0  0  0  0  0  0  0
  -37.1290   13.8570  -36.9520 C   0  0  0  0  0  2  0  0  0  0  0  0
  -36.7760   12.4880  -36.4180 C   0  0  0  0  0  2  0  0  0  0  0  0
  -35.7250   17.4510  -30.8220 C   0  0  0  0  0  1  0  0  0  0  0  0
  -36.0070   17.7000  -33.2760 C   0  0  0  0  0  1  0  0  0  0  0  0
  -37.9440   16.9680  -31.8680 C   0  0  0  0  0  1  0  0  0  0  0  0
  -36.4180   16.8360  -32.0630 C   0  0  1  0  0  0  0  0  0  0  0  0
  -38.5130   14.6470  -24.1840 O   0  0  0  0  0  0  0  0  0  0  0  0
  -38.7150   17.9200  -23.5010 C   0  0  0  0  0  2  0  0  0  0  0  0
  -39.4700   16.4900  -26.2020 C   0  0  0  0  0  2  0  0  0  0  0  0
  -38.9220   18.9590  -25.8800 C   0  0  0  0  0  2  0  0  0  0  0  0
  -37.8180   17.0230  -24.2980 C   0  0  0  0  0  3  0  0  0  0  0  0
  -38.3500   15.8670  -25.1310 C   0  0  0  0  0  3  0  0  0  0  0  0
  -38.0100   18.4900  -24.7240 C   0  0  2  0  0  0  0  0  0  0  0  0
  -39.1680   17.9210  -27.0060 C   0  0  1  0  0  0  0  0  0  0  0  0
  -36.8580   19.4600  -24.5170 C   0  0  0  0  0  1  0  0  0  0  0  0
  -37.8440   17.7170  -27.7720 C   0  0  0  0  0  1  0  0  0  0  0  0
  -40.1600   18.5520  -28.0550 N   0  0  0  0  0  0  0  0  0  0  0  0
  -39.7930   19.1740  -29.3860 C   0  0  0  0  0  2  0  0  0  0  0  0
  -40.9900   19.4150  -30.4010 C   0  0  0  0  0  2  0  0  0  0  0  0
  -42.1890   18.6700  -30.0130 N   0  0  0  0  0  0  0  0  0  0  0  0
  -42.5820   18.7810  -28.6070 C   0  0  0  0  0  2  0  0  0  0  0  0
  -41.4150   19.2260  -27.6620 C   0  0  0  0  0  2  0  0  0  0  0  0
  -43.0600   18.0520  -30.9540 C   0  0  0  0  0  0  0  0  0  0  0  0
  -44.3720   18.5240  -31.1930 C   0  0  0  0  0  3  0  0  0  0  0  0
  -45.2150   17.8360  -32.1120 C   0  0  0  0  0  0  0  0  0  0  0  0
  -44.7470   16.7230  -32.7440 N   0  0  0  0  0  0  0  0  0  0  0  0
  -43.5190   16.2460  -32.5190 N   0  0  0  0  0  0  0  0  0  0  0  0
  -42.6950   16.8790  -31.6580 C   0  0  0  0  0  0  0  0  0  0  0  0
  -41.4670   16.2800  -31.4430 N   0  0  0  0  0  0  0  0  0  0  0  0
  -41.0270   16.6200  -30.5960 H   0  0  0  0  0  0  0  0  0  0  0  0
  -41.4430   15.2760  -31.5500 H   0  0  0  0  0  0  0  0  0  0  0  0
  -46.6270   18.2530  -32.4360 C   0  0  0  0  0  0  0  0  0  0  0  0
  -47.5190   17.5240  -33.2910 C   0  0  0  0  0  0  0  0  0  0  0  0
  -48.8340   17.9700  -33.5300 C   0  0  0  0  0  3  0  0  0  0  0  0
  -49.3120   19.1470  -32.9380 C   0  0  0  0  0  3  0  0  0  0  0  0
  -48.4620   19.8890  -32.1060 C   0  0  0  0  0  3  0  0  0  0  0  0
  -47.1480   19.4450  -31.8660 C   0  0  0  0  0  3  0  0  0  0  0  0
  -47.1680   16.3630  -33.9230 O   0  0  0  0  0  0  0  0  0  0  0  0
  -46.2580   16.1380  -33.7280 H   0  0  0  0  0  0  0  0  0  0  0  0
  1  2  1  0
  2  3  2  0
  3  9  1  0
  4  6  2  0
  5  4  1  0
  5  1  2  0
  6  3  1  0
  7 12  1  0
  7 10  1  0
  8 10  2  0
  9 11  1  0
  9  7  2  0
 11  8  1  0
 13  5  1  0
 14 15  2  0
 14 16  1  0
 16 13  1  0
 17 16  1  0
 18 22  2  0
 18 21  1  0
 19 23  1  0
 19 14  1  0
 20 21  1  0
 20 24  1  0
 21 19  1  0
 24 25  1  0
 24 23  1  0
 26 25  1  0
 27 39  1  0
 27 18  1  0
 28 31  1  0
 28 27  1  0
 29 28  1  0
 30 29  2  0
 32 33  1  1
 32 29  1  0
 34 35  1  0
 34 32  1  0
 35 32  1  0
 39 37  1  6
 39 38  1  0
 39 36  1  0
 40  1  1  0
 42 45  1  0
 43 46  1  0
 44 41  1  0
 45 44  1  0
 45 40  1  0
 46 48  1  1
 46 44  1  0
 46 41  1  0
 47 49  1  6
 47 42  1  0
 47 43  1  0
 50 51  1  0
 50 55  1  0
 50 47  1  0
 52 53  1  0
 52 51  1  0
 53 54  1  0
 54 55  1  0
 56 53  1  0
 57 56  1  0
 58 57  2  0
 59 60  2  0
 59 58  1  0
 60 61  1  0
 61 62  1  0
 61 56  2  0
 62 63  1  0
 64 62  1  0
 65 58  1  0
 65 70  1  0
 66 65  2  0
 67 66  1  0
 67 68  2  0
 68 69  1  0
 69 70  2  0
 71 72  1  0
 71 66  1  0
M  ISO  4  40 101  45 101  47 100  50 100
M  END
>  <TORSDO>  (137) 
F 15

>  <SCORE>  (137) 
-14.804

>  <name>  (137) 
136

>  <ligand_id>  (137) 
136

>  <original_smiles>  (137) 
[H]Oc1c([H])c([H])c([H])c([H])c1-c1nnc(N([H])[H])c(N2C([H])([H])C([H])([H])N(C3(C([H])([H])[H])C([H])([H])C([H])(Oc4c([H])c(-c5sc([H])nc5C([H])([H])[H])c([H])c([H])c4C([H])([H])N([H])C(=O)C4([H])N(C(=O)C([H])(N([H])C(=O)C5(F)C([H])([H])C5([H])[H])C(C([H])([H])[H])(C([H])([H])[H])C([H])([H])[H])C([H])([H])C([H])(O[H])C4([H])[H])C4([H])C([H])([H])C4(C([H])([H])[H])C3([H])[H])C([H])([H])C2([H])[H])c1[H]

>  <smiles>  (137) 
[H]Oc1c([H])c([H])c([H])c([H])c1-c1nnc(N([H])[H])c(N2C([H])([H])C([H])([H])N(C3(C([H])([H])[H])C([H])([H])C([H])(Oc4c([H])c(-c5sc([H])nc5C([H])([H])[H])c([H])c([H])c4C([H])([H])N([H])C(=O)C4([H])N(C(=O)C([H])(N([H])C(=O)C5(F)C([H])([H])C5([H])[H])C(C([H])([H])[H])(C([H])([H])[H])C([H])([H])[H])C([H])([H])C([H])(O[H])C4([H])[H])C4([H])C([H])([H])C4(C([H])([H])[H])C3([H])[H])C([H])([H])C2([H])[H])c1[H]

$$$$
137:0:0
     RDKit          3D

 75 82  0  0  1  0  0  0  0  0999 V2000
  -37.4000   13.4650  -23.6740 C   0  0  0  0  0  0  0  0  0  0  0  0
  -36.7020   13.4060  -22.4450 C   0  0  0  0  0  3  0  0  0  0  0  0
  -35.4250   12.8130  -22.3600 C   0  0  0  0  0  0  0  0  0  0  0  0
  -35.5210   12.3530  -24.7610 C   0  0  0  0  0  3  0  0  0  0  0  0
  -36.8120   12.9250  -24.8400 C   0  0  0  0  0  0  0  0  0  0  0  0
  -34.8370   12.3020  -23.5340 C   0  0  0  0  0  3  0  0  0  0  0  0
  -35.2150   12.2370  -19.8550 C   0  0  0  0  0  0  0  0  0  0  0  0
  -33.0480   12.6040  -19.3040 C   0  0  0  0  0  3  0  0  0  0  0  0
  -34.7380   12.6770  -21.0750 C   0  0  0  0  0  0  0  0  0  0  0  0
  -34.2390   12.2020  -18.8560 N   0  0  0  0  0  0  0  0  0  0  0  0
  -33.0370   13.0780  -20.9900 S   0  0  0  0  0  0  0  0  0  0  0  0
  -36.5990   11.7840  -19.5020 C   0  0  0  0  0  1  0  0  0  0  0  0
  -37.5870   12.9340  -26.1570 C   0  0  0  0  0  2  0  0  0  0  0  0
  -36.2000   13.6900  -28.0700 C   0  0  0  0  0  0  0  0  0  0  0  0
  -36.4520   14.8860  -27.9080 O   0  0  0  0  0  0  0  0  0  0  0  0
  -36.7510   12.7210  -27.3340 N   0  0  0  0  0  0  0  0  0  0  0  0
  -36.5110   11.7630  -27.5530 H   0  0  0  0  0  0  0  0  0  0  0  0
  -36.1440   14.4020  -31.0960 C   0  0  0  0  0  0  0  0  0  0  0  0
  -35.1580   13.2410  -29.1100 C   0  0  0  0  0  3  0  0  0  0  0  0
  -33.6870   14.4620  -30.5900 C   0  0  0  0  0  2  0  0  0  0  0  0
  -35.0820   14.1030  -30.3040 N   0  0  0  0  0  0  0  0  0  0  0  0
  -37.2660   13.9280  -30.8820 O   0  0  0  0  0  0  0  0  0  0  0  0
  -33.7560   13.2910  -28.4770 C   0  0  0  0  0  2  0  0  0  0  0  0
  -32.8300   13.6510  -29.6210 C   0  0  0  0  0  3  0  0  0  0  0  0
  -32.3880   12.4790  -30.2870 O   0  0  0  0  0  0  0  0  0  0  0  0
  -33.1510   11.9990  -30.5920 H   0  0  0  0  0  0  0  0  0  0  0  0
  -35.9650   15.3210  -32.3330 C   0  0  0  0  0  3  0  0  0  0  0  0
  -35.7150   17.4370  -30.8720 C   0  0  0  0  0  1  0  0  0  0  0  0
  -36.0360   17.6550  -33.3240 C   0  0  0  0  0  1  0  0  0  0  0  0
  -37.9480   16.9340  -31.8740 C   0  0  0  0  0  1  0  0  0  0  0  0
  -36.4250   16.8060  -32.0940 C   0  0  1  0  0  0  0  0  0  0  0  0
  -36.7250   14.7140  -33.4400 N   0  0  0  0  0  0  0  0  0  0  0  0
  -36.2190   14.1600  -34.5500 C   0  0  0  0  0  0  0  0  0  0  0  0
  -35.0090   14.1710  -34.7950 O   0  0  0  0  0  0  0  0  0  0  0  0
  -37.7190   14.6020  -33.2960 H   0  0  0  0  0  0  0  0  0  0  0  0
  -37.2190   13.5190  -35.4740 C   0  0  1  0  0  0  0  0  0  0  0  0
  -38.4890   13.4000  -34.9320 F   0  0  0  0  0  0  0  0  0  0  0  0
  -37.1310   13.7790  -36.9610 C   0  0  0  0  0  2  0  0  0  0  0  0
  -36.7750   12.4160  -36.4100 C   0  0  0  0  0  2  0  0  0  0  0  0
  -38.6920   13.9280  -23.7480 O   0  0  0  0  0  0  0  0  0  0  0  0
  -39.0030   15.1900  -23.1710 C   0  0  0  0  0  2  0  0  0  0  0  0
  -38.2390   18.0790  -25.5340 C   0  0  0  0  0  3  0  0  0  0  0  0
  -38.2310   17.2480  -24.4010 C   0  0  0  0  0  3  0  0  0  0  0  0
  -40.1480   16.8430  -26.4260 C   0  0  0  0  0  3  0  0  0  0  0  0
  -39.1740   17.8500  -26.5660 C   0  0  0  0  0  0  0  0  0  0  0  0
  -39.1620   16.1960  -24.2910 C   0  0  0  0  0  0  0  0  0  0  0  0
  -40.1610   16.0220  -25.2830 C   0  0  0  0  0  0  0  0  0  0  0  0
  -41.2120   14.9280  -25.1790 C   0  0  0  0  0  1  0  0  0  0  0  0
  -40.0720   19.1430  -28.4860 N   0  0  0  0  0  0  0  0  0  0  0  0
  -39.9090   19.6280  -29.8780 C   0  0  0  0  0  2  0  0  0  0  0  0
  -41.1840   19.4700  -30.7390 C   0  0  0  0  0  2  0  0  0  0  0  0
  -42.1780   18.5880  -30.1270 N   0  0  0  0  0  0  0  0  0  0  0  0
  -42.5770   18.8900  -28.7510 C   0  0  0  0  0  2  0  0  0  0  0  0
  -41.4050   19.4310  -27.8860 C   0  0  0  0  0  2  0  0  0  0  0  0
  -39.0420   18.5560  -27.8340 C   0  0  0  0  0  3  0  0  0  0  0  0
  -37.8210   18.5780  -28.3730 N   0  0  0  0  0  0  0  0  0  0  0  0
  -37.0880   18.0560  -27.9170 H   0  0  0  0  0  0  0  0  0  0  0  0
  -37.5930   19.1420  -29.1710 H   0  0  0  0  0  0  0  0  0  0  0  0
  -43.1180   18.0080  -31.0080 C   0  0  0  0  0  0  0  0  0  0  0  0
  -44.4190   18.5190  -31.2030 C   0  0  0  0  0  3  0  0  0  0  0  0
  -45.2950   17.8540  -32.1060 C   0  0  0  0  0  0  0  0  0  0  0  0
  -44.8600   16.7430  -32.7650 N   0  0  0  0  0  0  0  0  0  0  0  0
  -43.6370   16.2400  -32.5870 N   0  0  0  0  0  0  0  0  0  0  0  0
  -42.7840   16.8460  -31.7390 C   0  0  0  0  0  0  0  0  0  0  0  0
  -41.5510   16.2420  -31.5720 N   0  0  0  0  0  0  0  0  0  0  0  0
  -41.0840   16.5650  -30.7350 H   0  0  0  0  0  0  0  0  0  0  0  0
  -41.5390   15.2390  -31.6930 H   0  0  0  0  0  0  0  0  0  0  0  0
  -46.7060   18.2950  -32.3840 C   0  0  0  0  0  0  0  0  0  0  0  0
  -47.6290   17.5830  -33.2200 C   0  0  0  0  0  0  0  0  0  0  0  0
  -48.9460   18.0470  -33.4160 C   0  0  0  0  0  3  0  0  0  0  0  0
  -49.3920   19.2230  -32.7960 C   0  0  0  0  0  3  0  0  0  0  0  0
  -48.5110   19.9460  -31.9810 C   0  0  0  0  0  3  0  0  0  0  0  0
  -47.1960   19.4860  -31.7850 C   0  0  0  0  0  3  0  0  0  0  0  0
  -47.3100   16.4270  -33.8730 O   0  0  0  0  0  0  0  0  0  0  0  0
  -46.3960   16.1920  -33.7060 H   0  0  0  0  0  0  0  0  0  0  0  0
  1  2  1  0
  2  3  2  0
  3  9  1  0
  4  6  2  0
  5  4  1  0
  5  1  2  0
  6  3  1  0
  7 12  1  0
  7 10  1  0
  8 10  2  0
  9 11  1  0
  9  7  2  0
 11  8  1  0
 13  5  1  0
 14 15  2  0
 14 16  1  0
 16 13  1  0
 17 16  1  0
 18 22  2  0
 18 21  1  0
 19 23  1  0
 19 14  1  0
 20 21  1  0
 20 24  1  0
 21 19  1  0
 24 25  1  0
 24 23  1  0
 26 25  1  0
 27 31  1  0
 27 18  1  0
 31 29  1  6
 31 30  1  0
 31 28  1  0
 32 35  1  0
 32 27  1  0
 33 32  1  0
 34 33  2  0
 36 37  1  1
 36 33  1  0
 38 39  1  0
 38 36  1  0
 39 36  1  0
 40  1  1  0
 40 41  1  0
 42 43  1  0
 43 46  2  0
 44 47  2  0
 45 44  1  0
 45 42  2  0
 46 41  1  0
 47 48  1  0
 47 46  1  0
 49 54  1  0
 49 55  1  0
 50 49  1  0
 51 52  1  0
 51 50  1  0
 52 53  1  0
 53 54  1  0
 55 56  1  0
 55 45  1  0
 56 57  1  0
 58 56  1  0
 59 52  1  0
 60 59  1  0
 61 60  2  0
 62 63  2  0
 62 61  1  0
 63 64  1  0
 64 65  1  0
 64 59  2  0
 65 66  1  0
 67 65  1  0
 68 61  1  0
 68 73  1  0
 69 68  2  0
 70 69  1  0
 70 71  2  0
 71 72  1  0
 72 73  2  0
 74 75  1  0
 74 69  1  0
M  ISO  4  40 101  41 101  49 100  55 100
M  END
>  <TORSDO>  (138) 
F 16

>  <SCORE>  (138) 
-14.456

>  <name>  (138) 
137

>  <ligand_id>  (138) 
137

>  <original_smiles>  (138) 
[H]Oc1c([H])c([H])c([H])c([H])c1-c1nnc(N([H])[H])c(N2C([H])([H])C([H])([H])N(C(c3c([H])c([H])c(C([H])([H])Oc4c([H])c(-c5sc([H])nc5C([H])([H])[H])c([H])c([H])c4C([H])([H])N([H])C(=O)C4([H])N(C(=O)C([H])(N([H])C(=O)C5(F)C([H])([H])C5([H])[H])C(C([H])([H])[H])(C([H])([H])[H])C([H])([H])[H])C([H])([H])C([H])(O[H])C4([H])[H])c(C([H])([H])[H])c3[H])=[N+]([H])[H])C([H])([H])C2([H])[H])c1[H]

>  <smiles>  (138) 
[H]Oc1c([H])c([H])c([H])c([H])c1-c1nnc(N([H])[H])c(N2C([H])([H])C([H])([H])N(C(c3c([H])c([H])c(C([H])([H])Oc4c([H])c(-c5sc([H])nc5C([H])([H])[H])c([H])c([H])c4C([H])([H])N([H])C(=O)C4([H])N(C(=O)C([H])(N([H])C(=O)C5(F)C([H])([H])C5([H])[H])C(C([H])([H])[H])(C([H])([H])[H])C([H])([H])[H])C([H])([H])C([H])(O[H])C4([H])[H])c(C([H])([H])[H])c3[H])=[N+]([H])[H])C([H])([H])C2([H])[H])c1[H]

$$$$
138:0:0
     RDKit          3D

 76 84  0  0  1  0  0  0  0  0999 V2000
  -37.4210   13.4940  -23.7410 C   0  0  0  0  0  0  0  0  0  0  0  0
  -36.7370   13.4410  -22.5000 C   0  0  0  0  0  3  0  0  0  0  0  0
  -35.4630   12.8270  -22.3920 C   0  0  0  0  0  0  0  0  0  0  0  0
  -35.5310   12.3720  -24.7960 C   0  0  0  0  0  3  0  0  0  0  0  0
  -36.8160   12.9500  -24.8920 C   0  0  0  0  0  0  0  0  0  0  0  0
  -34.8680   12.3090  -23.5600 C   0  0  0  0  0  3  0  0  0  0  0  0
  -35.2330   12.1960  -19.8960 C   0  0  0  0  0  0  0  0  0  0  0  0
  -33.0640   12.5590  -19.3440 C   0  0  0  0  0  3  0  0  0  0  0  0
  -34.7710   12.6770  -21.1070 C   0  0  0  0  0  0  0  0  0  0  0  0
  -34.2490   12.1410  -18.9030 N   0  0  0  0  0  0  0  0  0  0  0  0
  -33.0640   13.0700  -21.0200 S   0  0  0  0  0  0  0  0  0  0  0  0
  -36.6060   11.7090  -19.5540 C   0  0  0  0  0  1  0  0  0  0  0  0
  -37.5840   12.9800  -26.2130 C   0  0  0  0  0  2  0  0  0  0  0  0
  -36.2030   13.7220  -28.1250 C   0  0  0  0  0  0  0  0  0  0  0  0
  -36.4640   14.9180  -27.9700 O   0  0  0  0  0  0  0  0  0  0  0  0
  -36.7470   12.7530  -27.3810 N   0  0  0  0  0  0  0  0  0  0  0  0
  -36.5020   11.7950  -27.5830 H   0  0  0  0  0  0  0  0  0  0  0  0
  -36.1520   14.4370  -31.1460 C   0  0  0  0  0  0  0  0  0  0  0  0
  -35.1640   13.2710  -29.1630 C   0  0  0  0  0  3  0  0  0  0  0  0
  -33.6930   14.4900  -30.6410 C   0  0  0  0  0  2  0  0  0  0  0  0
  -35.0880   14.1360  -30.3550 N   0  0  0  0  0  0  0  0  0  0  0  0
  -37.2740   13.9660  -30.9310 O   0  0  0  0  0  0  0  0  0  0  0  0
  -33.7640   13.3230  -28.5280 C   0  0  0  0  0  2  0  0  0  0  0  0
  -32.8380   13.6720  -29.6740 C   0  0  0  0  0  3  0  0  0  0  0  0
  -32.4090   12.4950  -30.3400 O   0  0  0  0  0  0  0  0  0  0  0  0
  -33.1790   12.0260  -30.6490 H   0  0  0  0  0  0  0  0  0  0  0  0
  -35.9710   15.3550  -32.3830 C   0  0  0  0  0  3  0  0  0  0  0  0
  -35.7890   17.4550  -30.8840 C   0  0  0  0  0  1  0  0  0  0  0  0
  -35.9860   17.6990  -33.3470 C   0  0  0  0  0  1  0  0  0  0  0  0
  -37.9700   16.9720  -31.9980 C   0  0  0  0  0  1  0  0  0  0  0  0
  -36.4370   16.8380  -32.1470 C   0  0  1  0  0  0  0  0  0  0  0  0
  -36.7250   14.7440  -33.4900 N   0  0  0  0  0  0  0  0  0  0  0  0
  -36.2120   14.2090  -34.6070 C   0  0  0  0  0  0  0  0  0  0  0  0
  -35.0040   14.2470  -34.8570 O   0  0  0  0  0  0  0  0  0  0  0  0
  -37.7160   14.6110  -33.3430 H   0  0  0  0  0  0  0  0  0  0  0  0
  -37.2030   13.5550  -35.5330 C   0  0  1  0  0  0  0  0  0  0  0  0
  -38.4660   13.4010  -34.9850 F   0  0  0  0  0  0  0  0  0  0  0  0
  -37.1300   13.8390  -37.0160 C   0  0  0  0  0  2  0  0  0  0  0  0
  -36.7410   12.4760  -36.4890 C   0  0  0  0  0  2  0  0  0  0  0  0
  -38.7010   13.9780  -23.9000 O   0  0  0  0  0  0  0  0  0  0  0  0
  -39.0870   15.1710  -23.2320 C   0  0  0  0  0  2  0  0  0  0  0  0
  -38.7530   18.1220  -23.2420 C   0  0  0  0  0  2  0  0  0  0  0  0
  -38.8070   19.4630  -24.8040 C   0  0  0  0  0  0  0  0  0  0  0  0
  -39.7160   16.1340  -24.2600 C   0  0  0  0  0  0  0  0  0  0  0  0
  -37.7120   19.9860  -27.7380 C   0  0  0  0  0  2  0  0  0  0  0  0
  -37.2450   20.4160  -26.3430 C   0  0  0  0  0  2  0  0  0  0  0  0
  -39.4700   21.0860  -26.4520 C   0  0  0  0  0  2  0  0  0  0  0  0
  -39.1700   20.4900  -27.8540 C   0  0  0  0  0  3  0  0  0  0  0  0
  -38.4010   19.3770  -23.5060 N   0  0  0  0  0  0  0  0  0  0  0  0
  -39.4660   18.4130  -25.2920 N   0  0  0  0  0  2  0  0  0  0  0  0
  -39.3380   17.5220  -24.2790 N   0  0  0  0  0  0  0  0  0  0  0  0
  -38.4480   20.6050  -25.5450 N   0  0  0  0  0  0  0  0  0  0  0  0
  -40.4910   15.7420  -25.1460 O   0  0  0  0  0  0  0  0  0  0  0  0
  -40.0730   19.4280  -28.3490 N   0  0  0  0  0  0  0  0  0  0  0  0
  -39.8450   19.2500  -29.8010 C   0  0  0  0  0  2  0  0  0  0  0  0
  -41.0820   19.4570  -30.7090 C   0  0  0  0  0  2  0  0  0  0  0  0
  -42.2040   18.6920  -30.1790 N   0  0  0  0  0  0  0  0  0  0  0  0
  -42.4790   18.7650  -28.7510 C   0  0  0  0  0  2  0  0  0  0  0  0
  -41.4850   19.7110  -28.0410 C   0  0  0  0  0  2  0  0  0  0  0  0
  -43.1040   18.0450  -31.0460 C   0  0  0  0  0  0  0  0  0  0  0  0
  -44.4080   18.5380  -31.2370 C   0  0  0  0  0  3  0  0  0  0  0  0
  -45.2760   17.8570  -32.1280 C   0  0  0  0  0  0  0  0  0  0  0  0
  -44.8370   16.7370  -32.7710 N   0  0  0  0  0  0  0  0  0  0  0  0
  -43.6100   16.2380  -32.5790 N   0  0  0  0  0  0  0  0  0  0  0  0
  -42.7580   16.8690  -31.7440 C   0  0  0  0  0  0  0  0  0  0  0  0
  -41.5270   16.2700  -31.5530 N   0  0  0  0  0  0  0  0  0  0  0  0
  -41.0770   16.6290  -30.7210 H   0  0  0  0  0  0  0  0  0  0  0  0
  -41.5360   15.2600  -31.5990 H   0  0  0  0  0  0  0  0  0  0  0  0
  -46.6840   18.2980  -32.4090 C   0  0  0  0  0  0  0  0  0  0  0  0
  -47.5950   17.5940  -33.2610 C   0  0  0  0  0  0  0  0  0  0  0  0
  -48.9110   18.0570  -33.4630 C   0  0  0  0  0  3  0  0  0  0  0  0
  -49.3640   19.2240  -32.8350 C   0  0  0  0  0  3  0  0  0  0  0  0
  -48.4940   19.9370  -32.0000 C   0  0  0  0  0  3  0  0  0  0  0  0
  -47.1790   19.4790  -31.7950 C   0  0  0  0  0  3  0  0  0  0  0  0
  -47.2590   16.4480  -33.9220 O   0  0  0  0  0  0  0  0  0  0  0  0
  -46.3470   16.2230  -33.7370 H   0  0  0  0  0  0  0  0  0  0  0  0
  1  2  1  0
  2  3  2  0
  3  9  1  0
  4  6  2  0
  5  4  1  0
  5  1  2  0
  6  3  1  0
  7 12  1  0
  7 10  1  0
  8 10  2  0
  9 11  1  0
  9  7  2  0
 11  8  1  0
 13  5  1  0
 14 15  2  0
 14 16  1  0
 16 13  1  0
 17 16  1  0
 18 22  2  0
 18 21  1  0
 19 23  1  0
 19 14  1  0
 20 21  1  0
 20 24  1  0
 21 19  1  0
 24 25  1  0
 24 23  1  0
 26 25  1  0
 27 31  1  0
 27 18  1  0
 31 29  1  6
 31 30  1  0
 31 28  1  0
 32 35  1  0
 32 27  1  0
 33 32  1  0
 34 33  2  0
 36 37  1  1
 36 33  1  0
 38 39  1  0
 38 36  1  0
 39 36  1  0
 40  1  1  0
 40 41  1  0
 43 49  2  0
 44 41  1  0
 45 46  1  0
 46 52  1  0
 47 52  1  0
 48 45  1  0
 48 47  1  0
 49 42  1  0
 50 43  1  0
 50 51  1  0
 51 44  1  0
 51 42  1  0
 52 43  1  0
 53 44  2  0
 54 55  1  0
 54 59  1  0
 54 48  1  0
 56 57  1  0
 56 55  1  0
 57 58  1  0
 58 59  1  0
 60 57  1  0
 61 60  1  0
 62 61  2  0
 63 64  2  0
 63 62  1  0
 64 65  1  0
 65 66  1  0
 65 60  2  0
 66 67  1  0
 68 66  1  0
 69 62  1  0
 69 74  1  0
 70 69  2  0
 71 70  1  0
 71 72  2  0
 72 73  1  0
 73 74  2  0
 75 76  1  0
 75 70  1  0
M  ISO  4  40 101  41 101  48 100  54 100
M  END
>  <TORSDO>  (139) 
F 16

>  <SCORE>  (139) 
-14.499

>  <name>  (139) 
138

>  <ligand_id>  (139) 
138

>  <original_smiles>  (139) 
[H]Oc1c([H])c([H])c([H])c([H])c1-c1nnc(N([H])[H])c(N2C([H])([H])C([H])([H])N(C3([H])C([H])([H])N(c4nc([H])n(C(=O)C([H])([H])Oc5c([H])c(-c6sc([H])nc6C([H])([H])[H])c([H])c([H])c5C([H])([H])N([H])C(=O)C5([H])N(C(=O)C([H])(N([H])C(=O)C6(F)C([H])([H])C6([H])[H])C(C([H])([H])[H])(C([H])([H])[H])C([H])([H])[H])C([H])([H])C([H])(O[H])C5([H])[H])n4)C([H])([H])C3([H])[H])C([H])([H])C2([H])[H])c1[H]

>  <smiles>  (139) 
[H]Oc1c([H])c([H])c([H])c([H])c1-c1nnc(N([H])[H])c(N2C([H])([H])C([H])([H])N(C3([H])C([H])([H])N(c4nc([H])n(C(=O)C([H])([H])Oc5c([H])c(-c6sc([H])nc6C([H])([H])[H])c([H])c([H])c5C([H])([H])N([H])C(=O)C5([H])N(C(=O)C([H])(N([H])C(=O)C6(F)C([H])([H])C6([H])[H])C(C([H])([H])[H])(C([H])([H])[H])C([H])([H])[H])C([H])([H])C([H])(O[H])C5([H])[H])n4)C([H])([H])C3([H])[H])C([H])([H])C2([H])[H])c1[H]

$$$$
139:0:0
     RDKit          3D

 71 78  0  0  1  0  0  0  0  0999 V2000
  -37.4040   13.6630  -23.8090 C   0  0  0  0  0  0  0  0  0  0  0  0
  -36.7600   13.5670  -22.5350 C   0  0  0  0  0  3  0  0  0  0  0  0
  -35.5160   12.8840  -22.3760 C   0  0  0  0  0  0  0  0  0  0  0  0
  -35.5940   12.3050  -24.7470 C   0  0  0  0  0  3  0  0  0  0  0  0
  -36.8460   12.9420  -24.8930 C   0  0  0  0  0  0  0  0  0  0  0  0
  -34.9270   12.2980  -23.5140 C   0  0  0  0  0  3  0  0  0  0  0  0
  -35.2630   12.2850  -19.8660 C   0  0  0  0  0  0  0  0  0  0  0  0
  -33.0920   12.6620  -19.3300 C   0  0  0  0  0  3  0  0  0  0  0  0
  -34.8140   12.7530  -21.0870 C   0  0  0  0  0  0  0  0  0  0  0  0
  -34.2750   12.2430  -18.8770 N   0  0  0  0  0  0  0  0  0  0  0  0
  -33.1070   13.1560  -21.0120 S   0  0  0  0  0  0  0  0  0  0  0  0
  -36.6340   11.8070  -19.5090 C   0  0  0  0  0  1  0  0  0  0  0  0
  -37.6060   12.8110  -26.2120 C   0  0  0  0  0  2  0  0  0  0  0  0
  -36.1750   13.6760  -28.0640 C   0  0  0  0  0  0  0  0  0  0  0  0
  -36.3950   14.8690  -27.8660 O   0  0  0  0  0  0  0  0  0  0  0  0
  -36.7430   12.6840  -27.3740 N   0  0  0  0  0  0  0  0  0  0  0  0
  -36.5020   11.7410  -27.6440 H   0  0  0  0  0  0  0  0  0  0  0  0
  -36.1260   14.4440  -31.0770 C   0  0  0  0  0  0  0  0  0  0  0  0
  -35.1380   13.2480  -29.1090 C   0  0  0  0  0  3  0  0  0  0  0  0
  -33.6680   14.4860  -30.5650 C   0  0  0  0  0  2  0  0  0  0  0  0
  -35.0640   14.1290  -30.2880 N   0  0  0  0  0  0  0  0  0  0  0  0
  -37.2530   13.9800  -30.8630 O   0  0  0  0  0  0  0  0  0  0  0  0
  -33.7430   13.2940  -28.4670 C   0  0  0  0  0  2  0  0  0  0  0  0
  -32.8150   13.6560  -29.6060 C   0  0  0  0  0  3  0  0  0  0  0  0
  -32.3870   12.4840  -30.2820 O   0  0  0  0  0  0  0  0  0  0  0  0
  -33.1560   12.0220  -30.6030 H   0  0  0  0  0  0  0  0  0  0  0  0
  -35.9390   15.3710  -32.3070 C   0  0  0  0  0  3  0  0  0  0  0  0
  -36.7010   14.7780  -33.4190 N   0  0  0  0  0  0  0  0  0  0  0  0
  -36.1950   14.2220  -34.5290 C   0  0  0  0  0  0  0  0  0  0  0  0
  -34.9840   14.2210  -34.7670 O   0  0  0  0  0  0  0  0  0  0  0  0
  -37.6980   14.6790  -33.2820 H   0  0  0  0  0  0  0  0  0  0  0  0
  -37.1980   13.5960  -35.4610 C   0  0  1  0  0  0  0  0  0  0  0  0
  -38.4730   13.4930  -34.9260 F   0  0  0  0  0  0  0  0  0  0  0  0
  -37.0970   13.8620  -36.9450 C   0  0  0  0  0  2  0  0  0  0  0  0
  -36.7650   12.4910  -36.4010 C   0  0  0  0  0  2  0  0  0  0  0  0
  -35.6890   17.4720  -30.8240 C   0  0  0  0  0  1  0  0  0  0  0  0
  -35.9840   17.7150  -33.2770 C   0  0  0  0  0  1  0  0  0  0  0  0
  -37.9150   16.9970  -31.8560 C   0  0  0  0  0  1  0  0  0  0  0  0
  -36.3910   16.8580  -32.0590 C   0  0  1  0  0  0  0  0  0  0  0  0
  -38.4720   14.5340  -24.0660 O   0  0  0  0  0  0  0  0  0  0  0  0
  -38.0170   15.6920  -24.8920 C   0  0  0  0  0  2  0  0  0  0  0  0
  -40.3890   19.0430  -27.9750 N   0  0  0  0  0  0  0  0  0  0  0  0
  -39.9150   19.2590  -29.3710 C   0  0  0  0  0  2  0  0  0  0  0  0
  -41.0850   19.3980  -30.4230 C   0  0  0  0  0  2  0  0  0  0  0  0
  -42.2690   18.6350  -30.0070 N   0  0  0  0  0  0  0  0  0  0  0  0
  -42.7630   18.8400  -28.6480 C   0  0  0  0  0  2  0  0  0  0  0  0
  -41.7360   19.5630  -27.7500 C   0  0  0  0  0  2  0  0  0  0  0  0
  -39.4320   17.8870  -24.7480 C   0  0  0  0  0  3  0  0  0  0  0  0
  -38.9460   16.8100  -25.4470 C   0  0  0  0  0  0  0  0  0  0  0  0
  -39.8590   18.3400  -26.9040 C   0  0  0  0  0  3  0  0  0  0  0  0
  -39.0860   16.2720  -27.9750 C   0  0  0  0  0  1  0  0  0  0  0  0
  -39.2800   17.1080  -26.7930 N   0  0  0  0  0  0  0  0  0  0  0  0
  -39.9490   18.7860  -25.6460 N   0  0  0  0  0  0  0  0  0  0  0  0
  -40.3260   19.6870  -25.3880 H   0  0  0  0  0  0  0  0  0  0  0  0
  -43.1250   18.0270  -30.9590 C   0  0  0  0  0  0  0  0  0  0  0  0
  -44.4420   18.4800  -31.1970 C   0  0  0  0  0  3  0  0  0  0  0  0
  -45.2650   17.7880  -32.1280 C   0  0  0  0  0  0  0  0  0  0  0  0
  -44.7680   16.6940  -32.7730 N   0  0  0  0  0  0  0  0  0  0  0  0
  -43.5330   16.2380  -32.5520 N   0  0  0  0  0  0  0  0  0  0  0  0
  -42.7280   16.8750  -31.6770 C   0  0  0  0  0  0  0  0  0  0  0  0
  -41.4900   16.2990  -31.4570 N   0  0  0  0  0  0  0  0  0  0  0  0
  -41.0730   16.6250  -30.5950 H   0  0  0  0  0  0  0  0  0  0  0  0
  -41.4400   15.3000  -31.5960 H   0  0  0  0  0  0  0  0  0  0  0  0
  -46.6820   18.1790  -32.4490 C   0  0  0  0  0  0  0  0  0  0  0  0
  -47.5540   17.4380  -33.3150 C   0  0  0  0  0  0  0  0  0  0  0  0
  -48.8780   17.8590  -33.5550 C   0  0  0  0  0  3  0  0  0  0  0  0
  -49.3820   19.0200  -32.9530 C   0  0  0  0  0  3  0  0  0  0  0  0
  -48.5530   19.7710  -32.1090 C   0  0  0  0  0  3  0  0  0  0  0  0
  -47.2300   19.3540  -31.8690 C   0  0  0  0  0  3  0  0  0  0  0  0
  -47.1750   16.2930  -33.9570 O   0  0  0  0  0  0  0  0  0  0  0  0
  -46.2610   16.0860  -33.7600 H   0  0  0  0  0  0  0  0  0  0  0  0
  1  2  1  0
  2  3  2  0
  3  9  1  0
  4  6  2  0
  5  4  1  0
  5  1  2  0
  6  3  1  0
  7 12  1  0
  7 10  1  0
  8 10  2  0
  9 11  1  0
  9  7  2  0
 11  8  1  0
 13  5  1  0
 14 15  2  0
 14 16  1  0
 16 13  1  0
 17 16  1  0
 18 22  2  0
 18 21  1  0
 19 23  1  0
 19 14  1  0
 20 21  1  0
 20 24  1  0
 21 19  1  0
 24 25  1  0
 24 23  1  0
 26 25  1  0
 27 39  1  0
 27 18  1  0
 28 31  1  0
 28 27  1  0
 29 28  1  0
 30 29  2  0
 32 33  1  1
 32 29  1  0
 34 35  1  0
 34 32  1  0
 35 32  1  0
 39 37  1  6
 39 38  1  0
 39 36  1  0
 40  1  1  0
 41 40  1  0
 42 43  1  0
 42 47  1  0
 42 50  1  0
 44 45  1  0
 44 43  1  0
 45 46  1  0
 46 47  1  0
 49 41  1  0
 49 48  2  0
 50 52  1  0
 50 53  1  0
 51 52  1  0
 52 49  1  0
 53 54  1  0
 53 48  1  0
 55 45  1  0
 56 55  1  0
 57 56  2  0
 58 59  2  0
 58 57  1  0
 59 60  1  0
 60 61  1  0
 60 55  2  0
 61 62  1  0
 63 61  1  0
 64 57  1  0
 64 69  1  0
 65 64  2  0
 66 65  1  0
 66 67  2  0
 67 68  1  0
 68 69  2  0
 70 71  1  0
 70 65  1  0
M  ISO  4  40 101  41 101  42 100  50 100
M  END
>  <TORSDO>  (140) 
F 15

>  <SCORE>  (140) 
-14.445

>  <name>  (140) 
139

>  <ligand_id>  (140) 
139

>  <original_smiles>  (140) 
[H]Oc1c([H])c([H])c([H])c([H])c1-c1nnc(N([H])[H])c(N2C([H])([H])C([H])([H])N(c3n(C([H])([H])[H])c(C([H])([H])Oc4c([H])c(-c5sc([H])nc5C([H])([H])[H])c([H])c([H])c4C([H])([H])N([H])C(=O)C4([H])N(C(=O)C([H])(N([H])C(=O)C5(F)C([H])([H])C5([H])[H])C(C([H])([H])[H])(C([H])([H])[H])C([H])([H])[H])C([H])([H])C([H])(O[H])C4([H])[H])c([H])[n+]3[H])C([H])([H])C2([H])[H])c1[H]

>  <smiles>  (140) 
[H]Oc1c([H])c([H])c([H])c([H])c1-c1nnc(N([H])[H])c(N2C([H])([H])C([H])([H])N(c3n(C([H])([H])[H])c(C([H])([H])Oc4c([H])c(-c5sc([H])nc5C([H])([H])[H])c([H])c([H])c4C([H])([H])N([H])C(=O)C4([H])N(C(=O)C([H])(N([H])C(=O)C5(F)C([H])([H])C5([H])[H])C(C([H])([H])[H])(C([H])([H])[H])C([H])([H])[H])C([H])([H])C([H])(O[H])C4([H])[H])c([H])[n+]3[H])C([H])([H])C2([H])[H])c1[H]

$$$$
140:0:0
     RDKit          3D

 77 85  0  0  1  0  0  0  0  0999 V2000
  -37.4110   13.4210  -23.7080 C   0  0  0  0  0  0  0  0  0  0  0  0
  -36.7090   13.3920  -22.4890 C   0  0  0  0  0  3  0  0  0  0  0  0
  -35.4460   12.7780  -22.3940 C   0  0  0  0  0  0  0  0  0  0  0  0
  -35.5640   12.2730  -24.7880 C   0  0  0  0  0  3  0  0  0  0  0  0
  -36.8450   12.8630  -24.8770 C   0  0  0  0  0  0  0  0  0  0  0  0
  -34.8720   12.2380  -23.5630 C   0  0  0  0  0  3  0  0  0  0  0  0
  -35.2370   12.2340  -19.8880 C   0  0  0  0  0  0  0  0  0  0  0  0
  -33.0730   12.6140  -19.3370 C   0  0  0  0  0  3  0  0  0  0  0  0
  -34.7580   12.6690  -21.1090 C   0  0  0  0  0  0  0  0  0  0  0  0
  -34.2610   12.2070  -18.8890 N   0  0  0  0  0  0  0  0  0  0  0  0
  -33.0610   13.0830  -21.0240 S   0  0  0  0  0  0  0  0  0  0  0  0
  -36.6180   11.7770  -19.5350 C   0  0  0  0  0  1  0  0  0  0  0  0
  -37.5910   12.9240  -26.2070 C   0  0  0  0  0  2  0  0  0  0  0  0
  -36.2080   13.6850  -28.1120 C   0  0  0  0  0  0  0  0  0  0  0  0
  -36.4700   14.8790  -27.9480 O   0  0  0  0  0  0  0  0  0  0  0  0
  -36.7490   12.7110  -27.3750 N   0  0  0  0  0  0  0  0  0  0  0  0
  -36.5030   11.7550  -27.5940 H   0  0  0  0  0  0  0  0  0  0  0  0
  -36.1500   14.4270  -31.1300 C   0  0  0  0  0  0  0  0  0  0  0  0
  -35.1650   13.2460  -29.1520 C   0  0  0  0  0  3  0  0  0  0  0  0
  -33.6920   14.4780  -30.6180 C   0  0  0  0  0  2  0  0  0  0  0  0
  -35.0890   14.1190  -30.3390 N   0  0  0  0  0  0  0  0  0  0  0  0
  -37.2750   13.9570  -30.9210 O   0  0  0  0  0  0  0  0  0  0  0  0
  -33.7670   13.2980  -28.5140 C   0  0  0  0  0  2  0  0  0  0  0  0
  -32.8390   13.6550  -29.6570 C   0  0  0  0  0  3  0  0  0  0  0  0
  -32.4070   12.4810  -30.3270 O   0  0  0  0  0  0  0  0  0  0  0  0
  -33.1730   12.0190  -30.6510 H   0  0  0  0  0  0  0  0  0  0  0  0
  -35.9640   15.3540  -32.3610 C   0  0  0  0  0  3  0  0  0  0  0  0
  -35.7340   17.4560  -30.8730 C   0  0  0  0  0  1  0  0  0  0  0  0
  -36.0090   17.6980  -33.3290 C   0  0  0  0  0  1  0  0  0  0  0  0
  -37.9480   16.9730  -31.9200 C   0  0  0  0  0  1  0  0  0  0  0  0
  -36.4220   16.8390  -32.1140 C   0  0  1  0  0  0  0  0  0  0  0  0
  -36.7210   14.7570  -33.4750 N   0  0  0  0  0  0  0  0  0  0  0  0
  -36.2090   14.2180  -34.5910 C   0  0  0  0  0  0  0  0  0  0  0  0
  -35.0000   14.2380  -34.8340 O   0  0  0  0  0  0  0  0  0  0  0  0
  -37.7150   14.6390  -33.3360 H   0  0  0  0  0  0  0  0  0  0  0  0
  -37.2070   13.5820  -35.5240 C   0  0  1  0  0  0  0  0  0  0  0  0
  -38.4760   13.4500  -34.9820 F   0  0  0  0  0  0  0  0  0  0  0  0
  -37.1210   13.8620  -37.0070 C   0  0  0  0  0  2  0  0  0  0  0  0
  -36.7590   12.4940  -36.4750 C   0  0  0  0  0  2  0  0  0  0  0  0
  -38.5080   14.2230  -23.7520 O   0  0  0  0  0  0  0  0  0  0  0  0
  -40.5300   14.4330  -22.5870 C   0  0  0  0  0  2  0  0  0  0  0  0
  -40.6890   15.9240  -22.9910 C   0  0  0  0  0  2  0  0  0  0  0  0
  -40.4630   14.6240  -24.9170 C   0  0  0  0  0  2  0  0  0  0  0  0
  -39.8520   13.7830  -23.7910 C   0  0  0  0  0  3  0  0  0  0  0  0
  -40.3420   16.0280  -24.4360 N   0  0  2  0  0  4  0  0  0  0  0  0
  -41.0160   16.6180  -24.9000 H   0  0  0  0  0  0  0  0  0  0  0  0
  -38.9970   16.6500  -24.7020 C   0  0  0  0  0  2  0  0  0  0  0  0
  -40.3650   19.3080  -28.5140 N   0  0  0  0  0  0  0  0  0  0  0  0
  -40.0240   19.6270  -29.8950 C   0  0  0  0  0  2  0  0  0  0  0  0
  -41.2810   19.5270  -30.8140 C   0  0  0  0  0  2  0  0  0  0  0  0
  -42.3290   18.6560  -30.2560 N   0  0  0  0  0  0  0  0  0  0  0  0
  -42.7530   18.8570  -28.8680 C   0  0  0  0  0  2  0  0  0  0  0  0
  -41.7040   19.6190  -28.0480 C   0  0  0  0  0  2  0  0  0  0  0  0
  -38.7520   19.1600  -24.8200 C   0  0  0  0  0  3  0  0  0  0  0  0
  -38.7710   20.3530  -25.5600 C   0  0  0  0  0  3  0  0  0  0  0  0
  -39.0440   17.9480  -25.4730 C   0  0  0  0  0  0  0  0  0  0  0  0
  -39.3510   17.9830  -26.8500 C   0  0  0  0  0  0  0  0  0  0  0  0
  -39.4700   19.2400  -27.4610 C   0  0  0  0  0  0  0  0  0  0  0  0
  -39.6440   16.7290  -27.6770 C   0  0  0  0  0  1  0  0  0  0  0  0
  -39.1580   20.3980  -26.8530 N   0  0  0  0  0  0  0  0  0  0  0  0
  -43.2500   18.0580  -31.1370 C   0  0  0  0  0  0  0  0  0  0  0  0
  -44.5540   18.5610  -31.3330 C   0  0  0  0  0  3  0  0  0  0  0  0
  -45.4290   17.8810  -32.2190 C   0  0  0  0  0  0  0  0  0  0  0  0
  -44.9950   16.7610  -32.8630 N   0  0  0  0  0  0  0  0  0  0  0  0
  -43.7700   16.2590  -32.6750 N   0  0  0  0  0  0  0  0  0  0  0  0
  -42.9150   16.8810  -31.8410 C   0  0  0  0  0  0  0  0  0  0  0  0
  -41.6840   16.2800  -31.6570 N   0  0  0  0  0  0  0  0  0  0  0  0
  -41.2100   16.6300  -30.8330 H   0  0  0  0  0  0  0  0  0  0  0  0
  -41.6530   15.2780  -31.7740 H   0  0  0  0  0  0  0  0  0  0  0  0
  -46.8400   18.3220  -32.4990 C   0  0  0  0  0  0  0  0  0  0  0  0
  -47.7610   17.6110  -33.3350 C   0  0  0  0  0  0  0  0  0  0  0  0
  -49.0770   18.0770  -33.5360 C   0  0  0  0  0  3  0  0  0  0  0  0
  -49.5230   19.2540  -32.9200 C   0  0  0  0  0  3  0  0  0  0  0  0
  -48.6430   19.9770  -32.1030 C   0  0  0  0  0  3  0  0  0  0  0  0
  -47.3300   19.5150  -31.9010 C   0  0  0  0  0  3  0  0  0  0  0  0
  -47.4390   16.4510  -33.9840 O   0  0  0  0  0  0  0  0  0  0  0  0
  -46.5270   16.2150  -33.8140 H   0  0  0  0  0  0  0  0  0  0  0  0
  1  2  1  0
  2  3  2  0
  3  9  1  0
  4  6  2  0
  5  4  1  0
  5  1  2  0
  6  3  1  0
  7 12  1  0
  7 10  1  0
  8 10  2  0
  9 11  1  0
  9  7  2  0
 11  8  1  0
 13  5  1  0
 14 15  2  0
 14 16  1  0
 16 13  1  0
 17 16  1  0
 18 22  2  0
 18 21  1  0
 19 23  1  0
 19 14  1  0
 20 21  1  0
 20 24  1  0
 21 19  1  0
 24 25  1  0
 24 23  1  0
 26 25  1  0
 27 31  1  0
 27 18  1  0
 31 29  1  6
 31 30  1  0
 31 28  1  0
 32 35  1  0
 32 27  1  0
 33 32  1  0
 34 33  2  0
 36 37  1  1
 36 33  1  0
 38 39  1  0
 38 36  1  0
 39 36  1  0
 40  1  1  0
 42 41  1  0
 43 45  1  0
 43 44  1  0
 44 40  1  0
 44 41  1  0
 45 42  1  0
 45 46  1  6
 47 45  1  0
 48 53  1  0
 48 58  1  0
 49 48  1  0
 50 51  1  0
 50 49  1  0
 51 52  1  0
 52 53  1  0
 55 54  2  0
 56 54  1  0
 56 47  1  0
 57 56  2  0
 58 60  2  0
 58 57  1  0
 59 57  1  0
 60 55  1  0
 61 51  1  0
 62 61  1  0
 63 62  2  0
 64 65  2  0
 64 63  1  0
 65 66  1  0
 66 67  1  0
 66 61  2  0
 67 68  1  0
 69 67  1  0
 70 63  1  0
 70 75  1  0
 71 70  2  0
 72 71  1  0
 72 73  2  0
 73 74  1  0
 74 75  2  0
 76 77  1  0
 76 71  1  0
M  ISO  4  40 101  44 101  48 100  58 100
M  END
>  <TORSDO>  (141) 
F 16

>  <SCORE>  (141) 
-14.459

>  <name>  (141) 
140

>  <ligand_id>  (141) 
140

>  <original_smiles>  (141) 
[H]Oc1c([H])c([H])c([H])c([H])c1-c1nnc(N([H])[H])c(N2C([H])([H])C([H])([H])N(c3nc([H])c([H])c(C([H])([H])[N+]4([H])C([H])([H])C([H])([H])C([H])(Oc5c([H])c(-c6sc([H])nc6C([H])([H])[H])c([H])c([H])c5C([H])([H])N([H])C(=O)C5([H])N(C(=O)C([H])(N([H])C(=O)C6(F)C([H])([H])C6([H])[H])C(C([H])([H])[H])(C([H])([H])[H])C([H])([H])[H])C([H])([H])C([H])(O[H])C5([H])[H])C4([H])[H])c3C([H])([H])[H])C([H])([H])C2([H])[H])c1[H]

>  <smiles>  (141) 
[H]Oc1c([H])c([H])c([H])c([H])c1-c1nnc(N([H])[H])c(N2C([H])([H])C([H])([H])N(c3nc([H])c([H])c(C([H])([H])[N+]4([H])C([H])([H])C([H])([H])C([H])(Oc5c([H])c(-c6sc([H])nc6C([H])([H])[H])c([H])c([H])c5C([H])([H])N([H])C(=O)C5([H])N(C(=O)C([H])(N([H])C(=O)C6(F)C([H])([H])C6([H])[H])C(C([H])([H])[H])(C([H])([H])[H])C([H])([H])[H])C([H])([H])C([H])(O[H])C5([H])[H])C4([H])[H])c3C([H])([H])[H])C([H])([H])C2([H])[H])c1[H]

$$$$
141:0:0
     RDKit          3D

 75 83  0  0  1  0  0  0  0  0999 V2000
  -37.3840   13.4760  -23.7200 C   0  0  0  0  0  0  0  0  0  0  0  0
  -36.6970   13.4270  -22.4860 C   0  0  0  0  0  3  0  0  0  0  0  0
  -35.4310   12.8090  -22.3820 C   0  0  0  0  0  0  0  0  0  0  0  0
  -35.5320   12.3010  -24.7750 C   0  0  0  0  0  3  0  0  0  0  0  0
  -36.8110   12.8930  -24.8720 C   0  0  0  0  0  0  0  0  0  0  0  0
  -34.8500   12.2680  -23.5480 C   0  0  0  0  0  3  0  0  0  0  0  0
  -35.2120   12.2520  -19.8740 C   0  0  0  0  0  0  0  0  0  0  0  0
  -33.0450   12.6290  -19.3300 C   0  0  0  0  0  3  0  0  0  0  0  0
  -34.7400   12.6880  -21.0970 C   0  0  0  0  0  0  0  0  0  0  0  0
  -34.2330   12.2230  -18.8780 N   0  0  0  0  0  0  0  0  0  0  0  0
  -33.0410   13.0980  -21.0170 S   0  0  0  0  0  0  0  0  0  0  0  0
  -36.5930   11.7960  -19.5180 C   0  0  0  0  0  1  0  0  0  0  0  0
  -37.5860   12.8810  -26.1890 C   0  0  0  0  0  2  0  0  0  0  0  0
  -36.2070   13.6810  -28.0900 C   0  0  0  0  0  0  0  0  0  0  0  0
  -36.4730   14.8720  -27.9180 O   0  0  0  0  0  0  0  0  0  0  0  0
  -36.7440   12.6970  -27.3640 N   0  0  0  0  0  0  0  0  0  0  0  0
  -36.4890   11.7470  -27.5920 H   0  0  0  0  0  0  0  0  0  0  0  0
  -36.1500   14.4250  -31.1090 C   0  0  0  0  0  0  0  0  0  0  0  0
  -35.1630   13.2480  -29.1320 C   0  0  0  0  0  3  0  0  0  0  0  0
  -33.6920   14.4810  -30.5990 C   0  0  0  0  0  2  0  0  0  0  0  0
  -35.0870   14.1210  -30.3190 N   0  0  0  0  0  0  0  0  0  0  0  0
  -37.2710   13.9490  -30.8990 O   0  0  0  0  0  0  0  0  0  0  0  0
  -33.7640   13.2940  -28.4970 C   0  0  0  0  0  2  0  0  0  0  0  0
  -32.8360   13.6570  -29.6380 C   0  0  0  0  0  3  0  0  0  0  0  0
  -32.4000   12.4880  -30.3150 O   0  0  0  0  0  0  0  0  0  0  0  0
  -33.1660   12.0200  -30.6320 H   0  0  0  0  0  0  0  0  0  0  0  0
  -35.9690   15.3550  -32.3390 C   0  0  0  0  0  3  0  0  0  0  0  0
  -36.7240   14.7570  -33.4520 N   0  0  0  0  0  0  0  0  0  0  0  0
  -36.2110   14.2170  -34.5670 C   0  0  0  0  0  0  0  0  0  0  0  0
  -35.0020   14.2390  -34.8110 O   0  0  0  0  0  0  0  0  0  0  0  0
  -37.7190   14.6390  -33.3120 H   0  0  0  0  0  0  0  0  0  0  0  0
  -37.2060   13.5780  -35.5010 C   0  0  1  0  0  0  0  0  0  0  0  0
  -38.4740   13.4410  -34.9600 F   0  0  0  0  0  0  0  0  0  0  0  0
  -37.1200   13.8620  -36.9830 C   0  0  0  0  0  2  0  0  0  0  0  0
  -36.7530   12.4930  -36.4540 C   0  0  0  0  0  2  0  0  0  0  0  0
  -35.7570   17.4480  -30.8360 C   0  0  0  0  0  1  0  0  0  0  0  0
  -36.0100   17.7050  -33.2930 C   0  0  0  0  0  1  0  0  0  0  0  0
  -37.9610   16.9670  -31.9060 C   0  0  0  0  0  1  0  0  0  0  0  0
  -36.4320   16.8370  -32.0880 C   0  0  1  0  0  0  0  0  0  0  0  0
  -38.5920   14.1170  -23.8140 O   0  0  0  0  0  0  0  0  0  0  0  0
  -39.0930   17.7450  -23.4080 C   0  0  0  0  0  2  0  0  0  0  0  0
  -38.9670   16.3380  -22.8130 C   0  0  0  0  0  2  0  0  0  0  0  0
  -39.2450   16.0520  -25.1570 C   0  0  0  0  0  2  0  0  0  0  0  0
  -39.2920   17.5760  -24.9370 C   0  0  0  0  0  3  0  0  0  0  0  0
  -38.4370   15.5220  -23.9810 C   0  0  0  0  0  3  0  0  0  0  0  0
  -38.5350   18.2620  -27.3040 C   0  0  0  0  0  2  0  0  0  0  0  0
  -38.2210   18.3130  -25.7870 C   0  0  0  0  0  3  0  0  0  0  0  0
  -38.1000   19.8220  -25.4730 C   0  0  0  0  0  3  0  0  0  0  0  0
  -39.0330   19.6610  -27.7130 C   0  0  0  0  0  3  0  0  0  0  0  0
  -39.1240   20.4680  -26.4080 C   0  0  0  0  0  3  0  0  0  0  0  0
  -36.6630   20.3300  -25.7110 C   0  0  0  0  0  1  0  0  0  0  0  0
  -38.9110   21.7730  -26.5930 F   0  0  0  0  0  0  0  0  0  0  0  0
  -40.2600   19.6660  -28.5230 N   0  0  0  0  0  0  0  0  0  0  0  0
  -39.9970   19.2960  -29.9140 C   0  0  0  0  0  2  0  0  0  0  0  0
  -41.2620   19.4410  -30.7770 C   0  0  0  0  0  2  0  0  0  0  0  0
  -42.3080   18.6010  -30.2110 N   0  0  0  0  0  0  0  0  0  0  0  0
  -42.7050   18.9870  -28.8640 C   0  0  0  0  0  2  0  0  0  0  0  0
  -41.4890   19.1290  -27.9170 C   0  0  0  0  0  2  0  0  0  0  0  0
  -43.2430   18.0220  -31.0920 C   0  0  0  0  0  0  0  0  0  0  0  0
  -44.5450   18.5340  -31.2800 C   0  0  0  0  0  3  0  0  0  0  0  0
  -45.4240   17.8680  -32.1760 C   0  0  0  0  0  0  0  0  0  0  0  0
  -44.9960   16.7500  -32.8310 N   0  0  0  0  0  0  0  0  0  0  0  0
  -43.7740   16.2430  -32.6520 N   0  0  0  0  0  0  0  0  0  0  0  0
  -42.9140   16.8540  -31.8130 C   0  0  0  0  0  0  0  0  0  0  0  0
  -41.6860   16.2400  -31.6400 N   0  0  0  0  0  0  0  0  0  0  0  0
  -41.2210   16.5660  -30.8030 H   0  0  0  0  0  0  0  0  0  0  0  0
  -41.6790   15.2370  -31.7560 H   0  0  0  0  0  0  0  0  0  0  0  0
  -46.8340   18.3130  -32.4510 C   0  0  0  0  0  0  0  0  0  0  0  0
  -47.7620   17.6040  -33.2820 C   0  0  0  0  0  0  0  0  0  0  0  0
  -49.0770   18.0730  -33.4770 C   0  0  0  0  0  3  0  0  0  0  0  0
  -49.5150   19.2550  -32.8620 C   0  0  0  0  0  3  0  0  0  0  0  0
  -48.6270   19.9760  -32.0520 C   0  0  0  0  0  3  0  0  0  0  0  0
  -47.3150   19.5110  -31.8560 C   0  0  0  0  0  3  0  0  0  0  0  0
  -47.4490   16.4430  -33.9310 O   0  0  0  0  0  0  0  0  0  0  0  0
  -46.5370   16.2010  -33.7640 H   0  0  0  0  0  0  0  0  0  0  0  0
  1  2  1  0
  2  3  2  0
  3  9  1  0
  4  6  2  0
  5  4  1  0
  5  1  2  0
  6  3  1  0
  7 12  1  0
  7 10  1  0
  8 10  2  0
  9 11  1  0
  9  7  2  0
 11  8  1  0
 13  5  1  0
 14 15  2  0
 14 16  1  0
 16 13  1  0
 17 16  1  0
 18 22  2  0
 18 21  1  0
 19 23  1  0
 19 14  1  0
 20 21  1  0
 20 24  1  0
 21 19  1  0
 24 25  1  0
 24 23  1  0
 26 25  1  0
 27 39  1  0
 27 18  1  0
 28 31  1  0
 28 27  1  0
 29 28  1  0
 30 29  2  0
 32 33  1  1
 32 29  1  0
 34 35  1  0
 34 32  1  0
 35 32  1  0
 39 37  1  6
 39 38  1  0
 39 36  1  0
 40  1  1  0
 41 42  1  0
 43 45  1  0
 44 43  1  0
 44 41  1  0
 45 40  1  0
 45 42  1  0
 47 46  1  0
 47 48  1  0
 47 44  1  0
 48 51  1  0
 49 46  1  0
 49 50  1  0
 50 52  1  0
 50 48  1  0
 53 54  1  0
 53 58  1  0
 53 49  1  0
 55 56  1  0
 55 54  1  0
 56 57  1  0
 57 58  1  0
 59 56  1  0
 60 59  1  0
 61 60  2  0
 62 63  2  0
 62 61  1  0
 63 64  1  0
 64 65  1  0
 64 59  2  0
 65 66  1  0
 67 65  1  0
 68 61  1  0
 68 73  1  0
 69 68  2  0
 70 69  1  0
 70 71  2  0
 71 72  1  0
 72 73  2  0
 74 75  1  0
 74 69  1  0
M  ISO  4  40 101  45 101  49 100  53 100
M  END
>  <TORSDO>  (142) 
F 16

>  <SCORE>  (142) 
-14.568

>  <name>  (142) 
141

>  <ligand_id>  (142) 
141

>  <original_smiles>  (142) 
[H]Oc1c([H])c([H])c([H])c([H])c1-c1nnc(N([H])[H])c(N2C([H])([H])C([H])([H])N(C3([H])C([H])([H])C([H])(C4([H])C([H])([H])C([H])([H])C([H])(Oc5c([H])c(-c6sc([H])nc6C([H])([H])[H])c([H])c([H])c5C([H])([H])N([H])C(=O)C5([H])N(C(=O)C([H])(N([H])C(=O)C6(F)C([H])([H])C6([H])[H])C(C([H])([H])[H])(C([H])([H])[H])C([H])([H])[H])C([H])([H])C([H])(O[H])C5([H])[H])C4([H])[H])C([H])(C([H])([H])[H])C3([H])F)C([H])([H])C2([H])[H])c1[H]

>  <smiles>  (142) 
[H]Oc1c([H])c([H])c([H])c([H])c1-c1nnc(N([H])[H])c(N2C([H])([H])C([H])([H])N(C3([H])C([H])([H])C([H])(C4([H])C([H])([H])C([H])([H])C([H])(Oc5c([H])c(-c6sc([H])nc6C([H])([H])[H])c([H])c([H])c5C([H])([H])N([H])C(=O)C5([H])N(C(=O)C([H])(N([H])C(=O)C6(F)C([H])([H])C6([H])[H])C(C([H])([H])[H])(C([H])([H])[H])C([H])([H])[H])C([H])([H])C([H])(O[H])C5([H])[H])C4([H])[H])C([H])(C([H])([H])[H])C3([H])F)C([H])([H])C2([H])[H])c1[H]

$$$$
142:0:0
     RDKit          3D

 76 84  0  0  1  0  0  0  0  0999 V2000
  -37.4010   13.5030  -23.7030 C   0  0  0  0  0  0  0  0  0  0  0  0
  -36.7100   13.4100  -22.4700 C   0  0  0  0  0  3  0  0  0  0  0  0
  -35.4340   12.8240  -22.3840 C   0  0  0  0  0  0  0  0  0  0  0  0
  -35.5320   12.3670  -24.7840 C   0  0  0  0  0  3  0  0  0  0  0  0
  -36.8170   12.9440  -24.8650 C   0  0  0  0  0  0  0  0  0  0  0  0
  -34.8410   12.3260  -23.5610 C   0  0  0  0  0  3  0  0  0  0  0  0
  -35.2260   12.2600  -19.8750 C   0  0  0  0  0  0  0  0  0  0  0  0
  -33.0700   12.6590  -19.3200 C   0  0  0  0  0  3  0  0  0  0  0  0
  -34.7500   12.6990  -21.0940 C   0  0  0  0  0  0  0  0  0  0  0  0
  -34.2540   12.2410  -18.8720 N   0  0  0  0  0  0  0  0  0  0  0  0
  -33.0620   13.1390  -21.0030 S   0  0  0  0  0  0  0  0  0  0  0  0
  -36.6040   11.7830  -19.5210 C   0  0  0  0  0  1  0  0  0  0  0  0
  -37.5990   12.9400  -26.1830 C   0  0  0  0  0  2  0  0  0  0  0  0
  -36.2040   13.6950  -28.0910 C   0  0  0  0  0  0  0  0  0  0  0  0
  -36.4640   14.8900  -27.9290 O   0  0  0  0  0  0  0  0  0  0  0  0
  -36.7600   12.7240  -27.3570 N   0  0  0  0  0  0  0  0  0  0  0  0
  -36.5270   11.7640  -27.5680 H   0  0  0  0  0  0  0  0  0  0  0  0
  -36.1300   14.4320  -31.1130 C   0  0  0  0  0  0  0  0  0  0  0  0
  -35.1600   13.2530  -29.1290 C   0  0  0  0  0  3  0  0  0  0  0  0
  -33.6760   14.4830  -30.5940 C   0  0  0  0  0  2  0  0  0  0  0  0
  -35.0740   14.1260  -30.3160 N   0  0  0  0  0  0  0  0  0  0  0  0
  -37.2560   13.9590  -30.9100 O   0  0  0  0  0  0  0  0  0  0  0  0
  -33.7580   13.2930  -28.4920 C   0  0  0  0  0  2  0  0  0  0  0  0
  -32.8260   13.6570  -29.6290 C   0  0  0  0  0  3  0  0  0  0  0  0
  -32.3830   12.4900  -30.3040 O   0  0  0  0  0  0  0  0  0  0  0  0
  -33.1470   12.0160  -30.6150 H   0  0  0  0  0  0  0  0  0  0  0  0
  -35.9410   15.3580  -32.3450 C   0  0  0  0  0  3  0  0  0  0  0  0
  -35.7360   17.4600  -30.8540 C   0  0  0  0  0  1  0  0  0  0  0  0
  -35.9820   17.7060  -33.3100 C   0  0  0  0  0  1  0  0  0  0  0  0
  -37.9380   16.9730  -31.9270 C   0  0  0  0  0  1  0  0  0  0  0  0
  -36.4090   16.8410  -32.1040 C   0  0  1  0  0  0  0  0  0  0  0  0
  -36.6890   14.7570  -33.4630 N   0  0  0  0  0  0  0  0  0  0  0  0
  -36.1700   14.2130  -34.5730 C   0  0  0  0  0  0  0  0  0  0  0  0
  -34.9600   14.2360  -34.8090 O   0  0  0  0  0  0  0  0  0  0  0  0
  -37.6850   14.6370  -33.3310 H   0  0  0  0  0  0  0  0  0  0  0  0
  -37.1600   13.5740  -35.5110 C   0  0  1  0  0  0  0  0  0  0  0  0
  -38.4320   13.4420  -34.9790 F   0  0  0  0  0  0  0  0  0  0  0  0
  -37.0630   13.8510  -36.9930 C   0  0  0  0  0  2  0  0  0  0  0  0
  -36.7030   12.4830  -36.4580 C   0  0  0  0  0  2  0  0  0  0  0  0
  -38.6390   14.0890  -23.8290 O   0  0  0  0  0  0  0  0  0  0  0  0
  -38.3150   19.3540  -24.3950 C   0  0  0  0  0  0  0  0  0  0  0  0
  -39.4140   18.4490  -24.2070 C   0  0  0  0  0  0  0  0  0  0  0  0
  -38.1530   16.2020  -22.5900 C   0  0  0  0  0  2  0  0  0  0  0  0
  -40.4750   15.4830  -23.4870 C   0  0  0  0  0  2  0  0  0  0  0  0
  -38.8970   17.4180  -22.0310 C   0  0  0  0  0  2  0  0  0  0  0  0
  -40.9830   16.8810  -23.0490 C   0  0  0  0  0  2  0  0  0  0  0  0
  -39.1340   15.0160  -22.8500 C   0  0  0  0  0  3  0  0  0  0  0  0
  -37.3230   19.9470  -23.4230 C   0  0  0  0  0  1  0  0  0  0  0  0
  -38.1990   19.6010  -25.6750 N   0  0  0  0  0  0  0  0  0  0  0  0
  -39.9310   18.1420  -25.3670 N   0  0  0  0  0  0  0  0  0  0  0  0
  -39.1630   18.8390  -26.2460 N   0  0  0  0  0  0  0  0  0  0  0  0
  -39.8880   17.8600  -22.9990 N   0  0  0  0  0  0  0  0  0  0  0  0
  -39.2230   18.6300  -27.6950 C   0  0  0  0  0  2  0  0  0  0  0  0
  -40.2560   19.4280  -28.3910 N   0  0  0  0  0  0  0  0  0  0  0  0
  -40.0190   19.3050  -29.8410 C   0  0  0  0  0  2  0  0  0  0  0  0
  -41.2710   19.5300  -30.7230 C   0  0  0  0  0  2  0  0  0  0  0  0
  -42.3330   18.6580  -30.2370 N   0  0  0  0  0  0  0  0  0  0  0  0
  -42.7700   19.0150  -28.9010 C   0  0  0  0  0  2  0  0  0  0  0  0
  -41.5920   19.0230  -27.9180 C   0  0  0  0  0  2  0  0  0  0  0  0
  -43.2490   18.0770  -31.1400 C   0  0  0  0  0  0  0  0  0  0  0  0
  -44.5590   18.5640  -31.3290 C   0  0  0  0  0  3  0  0  0  0  0  0
  -45.4220   17.8990  -32.2390 C   0  0  0  0  0  0  0  0  0  0  0  0
  -44.9770   16.7930  -32.9040 N   0  0  0  0  0  0  0  0  0  0  0  0
  -43.7490   16.3050  -32.7210 N   0  0  0  0  0  0  0  0  0  0  0  0
  -42.9010   16.9180  -31.8750 C   0  0  0  0  0  0  0  0  0  0  0  0
  -41.6660   16.3240  -31.6800 N   0  0  0  0  0  0  0  0  0  0  0  0
  -41.2490   16.6370  -30.8110 H   0  0  0  0  0  0  0  0  0  0  0  0
  -41.6160   15.3260  -31.8320 H   0  0  0  0  0  0  0  0  0  0  0  0
  -46.8350   18.3290  -32.5090 C   0  0  0  0  0  0  0  0  0  0  0  0
  -47.7540   17.6160  -33.3460 C   0  0  0  0  0  0  0  0  0  0  0  0
  -49.0740   18.0760  -33.5450 C   0  0  0  0  0  3  0  0  0  0  0  0
  -49.5240   19.2490  -32.9240 C   0  0  0  0  0  3  0  0  0  0  0  0
  -48.6460   19.9750  -32.1070 C   0  0  0  0  0  3  0  0  0  0  0  0
  -47.3290   19.5200  -31.9100 C   0  0  0  0  0  3  0  0  0  0  0  0
  -47.4340   16.4570  -33.9940 O   0  0  0  0  0  0  0  0  0  0  0  0
  -46.5190   16.2180  -33.8390 H   0  0  0  0  0  0  0  0  0  0  0  0
  1  2  1  0
  2  3  2  0
  3  9  1  0
  4  6  2  0
  5  4  1  0
  5  1  2  0
  6  3  1  0
  7 12  1  0
  7 10  1  0
  8 10  2  0
  9 11  1  0
  9  7  2  0
 11  8  1  0
 13  5  1  0
 14 15  2  0
 14 16  1  0
 16 13  1  0
 17 16  1  0
 18 22  2  0
 18 21  1  0
 19 23  1  0
 19 14  1  0
 20 21  1  0
 20 24  1  0
 21 19  1  0
 24 25  1  0
 24 23  1  0
 26 25  1  0
 27 31  1  0
 27 18  1  0
 31 29  1  6
 31 30  1  0
 31 28  1  0
 32 35  1  0
 32 27  1  0
 33 32  1  0
 34 33  2  0
 36 37  1  1
 36 33  1  0
 38 39  1  0
 38 36  1  0
 39 36  1  0
 40  1  1  0
 41 42  1  0
 41 48  1  0
 42 52  1  0
 43 45  1  0
 44 46  1  0
 44 47  1  0
 46 52  1  0
 47 40  1  0
 47 43  1  0
 49 41  2  0
 50 42  2  0
 51 49  1  0
 51 50  1  0
 52 45  1  0
 53 51  1  0
 54 59  1  0
 54 53  1  0
 55 54  1  0
 56 57  1  0
 56 55  1  0
 57 58  1  0
 58 59  1  0
 60 57  1  0
 61 60  1  0
 62 61  2  0
 63 64  2  0
 63 62  1  0
 64 65  1  0
 65 66  1  0
 65 60  2  0
 66 67  1  0
 68 66  1  0
 69 62  1  0
 69 74  1  0
 70 69  2  0
 71 70  1  0
 71 72  2  0
 72 73  1  0
 73 74  2  0
 75 76  1  0
 75 70  1  0
M  ISO  4  40 101  47 101  53 100  54 100
M  END
>  <TORSDO>  (143) 
F 16

>  <SCORE>  (143) 
-14.561

>  <name>  (143) 
142

>  <ligand_id>  (143) 
142

>  <original_smiles>  (143) 
[H]Oc1c([H])c([H])c([H])c([H])c1-c1nnc(N([H])[H])c(N2C([H])([H])C([H])([H])N(C([H])([H])n3nc(N4C([H])([H])C([H])([H])C([H])(Oc5c([H])c(-c6sc([H])nc6C([H])([H])[H])c([H])c([H])c5C([H])([H])N([H])C(=O)C5([H])N(C(=O)C([H])(N([H])C(=O)C6(F)C([H])([H])C6([H])[H])C(C([H])([H])[H])(C([H])([H])[H])C([H])([H])[H])C([H])([H])C([H])(O[H])C5([H])[H])C([H])([H])C4([H])[H])c(C([H])([H])[H])n3)C([H])([H])C2([H])[H])c1[H]

>  <smiles>  (143) 
[H]Oc1c([H])c([H])c([H])c([H])c1-c1nnc(N([H])[H])c(N2C([H])([H])C([H])([H])N(C([H])([H])n3nc(N4C([H])([H])C([H])([H])C([H])(Oc5c([H])c(-c6sc([H])nc6C([H])([H])[H])c([H])c([H])c5C([H])([H])N([H])C(=O)C5([H])N(C(=O)C([H])(N([H])C(=O)C6(F)C([H])([H])C6([H])[H])C(C([H])([H])[H])(C([H])([H])[H])C([H])([H])[H])C([H])([H])C([H])(O[H])C5([H])[H])C([H])([H])C4([H])[H])c(C([H])([H])[H])n3)C([H])([H])C2([H])[H])c1[H]

$$$$
143:0:0
     RDKit          3D

 74 81  0  0  1  0  0  0  0  0999 V2000
  -37.3650   13.4780  -23.7000 C   0  0  0  0  0  0  0  0  0  0  0  0
  -36.6610   13.4150  -22.4750 C   0  0  0  0  0  3  0  0  0  0  0  0
  -35.3900   12.8100  -22.3930 C   0  0  0  0  0  0  0  0  0  0  0  0
  -35.5080   12.3330  -24.7900 C   0  0  0  0  0  3  0  0  0  0  0  0
  -36.7930   12.9180  -24.8630 C   0  0  0  0  0  0  0  0  0  0  0  0
  -34.8140   12.2860  -23.5690 C   0  0  0  0  0  3  0  0  0  0  0  0
  -35.1630   12.2380  -19.8890 C   0  0  0  0  0  0  0  0  0  0  0  0
  -32.9970   12.6240  -19.3480 C   0  0  0  0  0  3  0  0  0  0  0  0
  -34.6950   12.6790  -21.1120 C   0  0  0  0  0  0  0  0  0  0  0  0
  -34.1820   12.2120  -18.8960 N   0  0  0  0  0  0  0  0  0  0  0  0
  -32.9980   13.0980  -21.0350 S   0  0  0  0  0  0  0  0  0  0  0  0
  -36.5420   11.7810  -19.5290 C   0  0  0  0  0  1  0  0  0  0  0  0
  -37.5770   12.9340  -26.1750 C   0  0  0  0  0  2  0  0  0  0  0  0
  -36.2060   13.6870  -28.0990 C   0  0  0  0  0  0  0  0  0  0  0  0
  -36.4650   14.8820  -27.9360 O   0  0  0  0  0  0  0  0  0  0  0  0
  -36.7500   12.7170  -27.3580 N   0  0  0  0  0  0  0  0  0  0  0  0
  -36.5070   11.7600  -27.5730 H   0  0  0  0  0  0  0  0  0  0  0  0
  -36.1530   14.4300  -31.1160 C   0  0  0  0  0  0  0  0  0  0  0  0
  -35.1670   13.2440  -29.1420 C   0  0  0  0  0  3  0  0  0  0  0  0
  -33.6940   14.4740  -30.6130 C   0  0  0  0  0  2  0  0  0  0  0  0
  -35.0900   14.1170  -30.3290 N   0  0  0  0  0  0  0  0  0  0  0  0
  -37.2770   13.9610  -30.9050 O   0  0  0  0  0  0  0  0  0  0  0  0
  -33.7640   13.2810  -28.5120 C   0  0  0  0  0  2  0  0  0  0  0  0
  -32.8390   13.6480  -29.6540 C   0  0  0  0  0  3  0  0  0  0  0  0
  -32.3980   12.4810  -30.3330 O   0  0  0  0  0  0  0  0  0  0  0  0
  -33.1600   12.0060  -30.6470 H   0  0  0  0  0  0  0  0  0  0  0  0
  -35.9690   15.3600  -32.3450 C   0  0  0  0  0  3  0  0  0  0  0  0
  -35.7650   17.4520  -30.8390 C   0  0  0  0  0  1  0  0  0  0  0  0
  -36.0060   17.7120  -33.2980 C   0  0  0  0  0  1  0  0  0  0  0  0
  -37.9600   16.9710  -31.9250 C   0  0  0  0  0  1  0  0  0  0  0  0
  -36.4320   16.8430  -32.0950 C   0  0  1  0  0  0  0  0  0  0  0  0
  -36.7240   14.7640  -33.4590 N   0  0  0  0  0  0  0  0  0  0  0  0
  -36.2130   14.2350  -34.5790 C   0  0  0  0  0  0  0  0  0  0  0  0
  -35.0040   14.2670  -34.8270 O   0  0  0  0  0  0  0  0  0  0  0  0
  -37.7170   14.6390  -33.3160 H   0  0  0  0  0  0  0  0  0  0  0  0
  -37.2060   13.5970  -35.5110 C   0  0  1  0  0  0  0  0  0  0  0  0
  -38.4720   13.4510  -34.9670 F   0  0  0  0  0  0  0  0  0  0  0  0
  -37.1280   13.8880  -36.9920 C   0  0  0  0  0  2  0  0  0  0  0  0
  -36.7480   12.5200  -36.4710 C   0  0  0  0  0  2  0  0  0  0  0  0
  -38.6420   13.9790  -23.7720 O   0  0  0  0  0  0  0  0  0  0  0  0
  -38.9070   15.2620  -23.2110 C   0  0  0  0  0  2  0  0  0  0  0  0
  -39.9270   16.9660  -26.4800 C   0  0  0  0  0  3  0  0  0  0  0  0
  -38.2170   17.4290  -24.3090 C   0  0  0  0  0  3  0  0  0  0  0  0
  -39.0470   18.0700  -26.5240 C   0  0  0  0  0  0  0  0  0  0  0  0
  -38.2090   18.3250  -25.3990 C   0  0  0  0  0  0  0  0  0  0  0  0
  -39.0420   16.2880  -24.3170 C   0  0  0  0  0  0  0  0  0  0  0  0
  -39.9430   16.0880  -25.3850 C   0  0  0  0  0  0  0  0  0  0  0  0
  -37.2420   19.5000  -25.3300 C   0  0  0  0  0  1  0  0  0  0  0  0
  -41.0440   14.7540  -25.4220 Cl  0  0  0  0  0  0  0  0  0  0  0  0
  -39.9910   19.1470  -28.5460 N   0  0  0  0  0  0  0  0  0  0  0  0
  -39.8080   19.4770  -29.9680 C   0  0  0  0  0  2  0  0  0  0  0  0
  -41.1000   19.4310  -30.8110 C   0  0  0  0  0  2  0  0  0  0  0  0
  -42.1110   18.5710  -30.2090 N   0  0  0  0  0  0  0  0  0  0  0  0
  -42.4770   18.8300  -28.8190 C   0  0  0  0  0  2  0  0  0  0  0  0
  -41.3240   19.4760  -28.0100 C   0  0  0  0  0  2  0  0  0  0  0  0
  -38.8920   18.8120  -27.8270 C   0  0  0  0  0  0  0  0  0  0  0  0
  -37.7490   19.0050  -28.2580 O   0  0  0  0  0  0  0  0  0  0  0  0
  -43.0690   18.0070  -31.0820 C   0  0  0  0  0  0  0  0  0  0  0  0
  -44.3700   18.5300  -31.2510 C   0  0  0  0  0  3  0  0  0  0  0  0
  -45.2700   17.8780  -32.1400 C   0  0  0  0  0  0  0  0  0  0  0  0
  -44.8610   16.7640  -32.8110 N   0  0  0  0  0  0  0  0  0  0  0  0
  -43.6370   16.2520  -32.6600 N   0  0  0  0  0  0  0  0  0  0  0  0
  -42.7600   16.8480  -31.8290 C   0  0  0  0  0  0  0  0  0  0  0  0
  -41.5250   16.2380  -31.7070 N   0  0  0  0  0  0  0  0  0  0  0  0
  -40.9980   16.5640  -30.9080 H   0  0  0  0  0  0  0  0  0  0  0  0
  -41.4970   15.2410  -31.8650 H   0  0  0  0  0  0  0  0  0  0  0  0
  -46.6850   18.3310  -32.3900 C   0  0  0  0  0  0  0  0  0  0  0  0
  -47.6220   17.6440  -33.2310 C   0  0  0  0  0  0  0  0  0  0  0  0
  -48.9390   18.1190  -33.4000 C   0  0  0  0  0  3  0  0  0  0  0  0
  -49.3700   19.2840  -32.7500 C   0  0  0  0  0  3  0  0  0  0  0  0
  -48.4750   19.9820  -31.9280 C   0  0  0  0  0  3  0  0  0  0  0  0
  -47.1590   19.5110  -31.7590 C   0  0  0  0  0  3  0  0  0  0  0  0
  -47.3200   16.4990  -33.9140 O   0  0  0  0  0  0  0  0  0  0  0  0
  -46.4080   16.2470  -33.7610 H   0  0  0  0  0  0  0  0  0  0  0  0
  1  2  1  0
  2  3  2  0
  3  9  1  0
  4  6  2  0
  5  4  1  0
  5  1  2  0
  6  3  1  0
  7 12  1  0
  7 10  1  0
  8 10  2  0
  9 11  1  0
  9  7  2  0
 11  8  1  0
 13  5  1  0
 14 15  2  0
 14 16  1  0
 16 13  1  0
 17 16  1  0
 18 22  2  0
 18 21  1  0
 19 23  1  0
 19 14  1  0
 20 21  1  0
 20 24  1  0
 21 19  1  0
 24 25  1  0
 24 23  1  0
 26 25  1  0
 27 31  1  0
 27 18  1  0
 31 29  1  6
 31 30  1  0
 31 28  1  0
 32 35  1  0
 32 27  1  0
 33 32  1  0
 34 33  2  0
 36 37  1  1
 36 33  1  0
 38 39  1  0
 38 36  1  0
 39 36  1  0
 40  1  1  0
 40 41  1  0
 42 47  1  0
 44 42  2  0
 44 45  1  0
 45 48  1  0
 45 43  2  0
 46 43  1  0
 46 41  1  0
 47 46  2  0
 49 47  1  0
 50 55  1  0
 50 56  1  0
 51 50  1  0
 52 53  1  0
 52 51  1  0
 53 54  1  0
 54 55  1  0
 56 44  1  0
 57 56  2  0
 58 53  1  0
 59 58  1  0
 60 59  2  0
 61 62  2  0
 61 60  1  0
 62 63  1  0
 63 64  1  0
 63 58  2  0
 64 65  1  0
 66 64  1  0
 67 60  1  0
 67 72  1  0
 68 67  2  0
 69 68  1  0
 69 70  2  0
 70 71  1  0
 71 72  2  0
 73 74  1  0
 73 68  1  0
M  ISO  4  40 101  41 101  50 100  56 100
M  END
>  <TORSDO>  (144) 
F 16

>  <SCORE>  (144) 
-14.529

>  <name>  (144) 
143

>  <ligand_id>  (144) 
143

>  <original_smiles>  (144) 
[H]Oc1c([H])c([H])c([H])c([H])c1-c1nnc(N([H])[H])c(N2C([H])([H])C([H])([H])N(C(=O)c3c([H])c(Cl)c(C([H])([H])Oc4c([H])c(-c5sc([H])nc5C([H])([H])[H])c([H])c([H])c4C([H])([H])N([H])C(=O)C4([H])N(C(=O)C([H])(N([H])C(=O)C5(F)C([H])([H])C5([H])[H])C(C([H])([H])[H])(C([H])([H])[H])C([H])([H])[H])C([H])([H])C([H])(O[H])C4([H])[H])c([H])c3C([H])([H])[H])C([H])([H])C2([H])[H])c1[H]

>  <smiles>  (144) 
[H]Oc1c([H])c([H])c([H])c([H])c1-c1nnc(N([H])[H])c(N2C([H])([H])C([H])([H])N(C(=O)c3c([H])c(Cl)c(C([H])([H])Oc4c([H])c(-c5sc([H])nc5C([H])([H])[H])c([H])c([H])c4C([H])([H])N([H])C(=O)C4([H])N(C(=O)C([H])(N([H])C(=O)C5(F)C([H])([H])C5([H])[H])C(C([H])([H])[H])(C([H])([H])[H])C([H])([H])[H])C([H])([H])C([H])(O[H])C4([H])[H])c([H])c3C([H])([H])[H])C([H])([H])C2([H])[H])c1[H]

$$$$
144:0:0
     RDKit          3D

 74 81  0  0  1  0  0  0  0  0999 V2000
  -37.4020   13.4970  -23.7040 C   0  0  0  0  0  0  0  0  0  0  0  0
  -36.7130   13.4450  -22.4720 C   0  0  0  0  0  3  0  0  0  0  0  0
  -35.4310   12.8600  -22.3750 C   0  0  0  0  0  0  0  0  0  0  0  0
  -35.5290   12.3600  -24.7710 C   0  0  0  0  0  3  0  0  0  0  0  0
  -36.8200   12.9300  -24.8610 C   0  0  0  0  0  0  0  0  0  0  0  0
  -34.8410   12.3350  -23.5440 C   0  0  0  0  0  3  0  0  0  0  0  0
  -35.1850   12.3040  -19.8680 C   0  0  0  0  0  0  0  0  0  0  0  0
  -33.0270   12.7320  -19.3300 C   0  0  0  0  0  3  0  0  0  0  0  0
  -34.7300   12.7520  -21.0930 C   0  0  0  0  0  0  0  0  0  0  0  0
  -34.2040   12.2970  -18.8750 N   0  0  0  0  0  0  0  0  0  0  0  0
  -33.0390   13.2010  -21.0170 S   0  0  0  0  0  0  0  0  0  0  0  0
  -36.5530   11.8150  -19.5070 C   0  0  0  0  0  1  0  0  0  0  0  0
  -37.5980   12.9030  -26.1770 C   0  0  0  0  0  2  0  0  0  0  0  0
  -36.2160   13.6810  -28.0830 C   0  0  0  0  0  0  0  0  0  0  0  0
  -36.4820   14.8740  -27.9200 O   0  0  0  0  0  0  0  0  0  0  0  0
  -36.7570   12.7040  -27.3500 N   0  0  0  0  0  0  0  0  0  0  0  0
  -36.5080   11.7500  -27.5710 H   0  0  0  0  0  0  0  0  0  0  0  0
  -36.1660   14.4170  -31.1040 C   0  0  0  0  0  0  0  0  0  0  0  0
  -35.1740   13.2440  -29.1250 C   0  0  0  0  0  3  0  0  0  0  0  0
  -33.7070   14.4720  -30.6010 C   0  0  0  0  0  2  0  0  0  0  0  0
  -35.1010   14.1120  -30.3160 N   0  0  0  0  0  0  0  0  0  0  0  0
  -37.2890   13.9450  -30.8900 O   0  0  0  0  0  0  0  0  0  0  0  0
  -33.7720   13.2870  -28.4950 C   0  0  0  0  0  2  0  0  0  0  0  0
  -32.8490   13.6540  -29.6390 C   0  0  0  0  0  3  0  0  0  0  0  0
  -32.4070   12.4850  -30.3130 O   0  0  0  0  0  0  0  0  0  0  0  0
  -33.1690   12.0110  -30.6270 H   0  0  0  0  0  0  0  0  0  0  0  0
  -35.9850   15.3390  -32.3380 C   0  0  0  0  0  3  0  0  0  0  0  0
  -35.7980   17.4410  -30.8430 C   0  0  0  0  0  1  0  0  0  0  0  0
  -36.0250   17.6840  -33.3030 C   0  0  0  0  0  1  0  0  0  0  0  0
  -37.9880   16.9420  -31.9410 C   0  0  0  0  0  1  0  0  0  0  0  0
  -36.4570   16.8190  -32.1000 C   0  0  1  0  0  0  0  0  0  0  0  0
  -36.7350   14.7310  -33.4510 N   0  0  0  0  0  0  0  0  0  0  0  0
  -36.2190   14.2000  -34.5670 C   0  0  0  0  0  0  0  0  0  0  0  0
  -35.0100   14.2370  -34.8140 O   0  0  0  0  0  0  0  0  0  0  0  0
  -37.7270   14.5990  -33.3090 H   0  0  0  0  0  0  0  0  0  0  0  0
  -37.2080   13.5530  -35.4970 C   0  0  1  0  0  0  0  0  0  0  0  0
  -38.4740   13.4060  -34.9550 F   0  0  0  0  0  0  0  0  0  0  0  0
  -37.1290   13.8360  -36.9800 C   0  0  0  0  0  2  0  0  0  0  0  0
  -36.7470   12.4710  -36.4520 C   0  0  0  0  0  2  0  0  0  0  0  0
  -38.6260   14.1180  -23.7760 O   0  0  0  0  0  0  0  0  0  0  0  0
  -37.5340   16.2390  -24.3600 C   0  0  0  0  0  3  0  0  0  0  0  0
  -37.6530   17.5130  -24.9360 C   0  0  0  0  0  3  0  0  0  0  0  0
  -38.6770   15.4100  -24.2670 C   0  0  0  0  0  0  0  0  0  0  0  0
  -38.9090   17.9450  -25.4020 C   0  0  0  0  0  0  0  0  0  0  0  0
  -39.8990   15.9400  -24.7430 C   0  0  0  0  0  0  0  0  0  0  0  0
  -41.1690   15.1170  -24.7040 C   0  0  0  0  0  1  0  0  0  0  0  0
  -40.0160   17.1720  -25.2940 N   0  0  0  0  0  0  0  0  0  0  0  0
  -39.9830   20.3170  -25.3550 C   0  0  0  0  0  1  0  0  0  0  0  0
  -39.0450   19.3180  -26.0640 C   0  0  0  0  0  3  0  0  0  0  0  0
  -40.2000   19.3070  -28.3610 N   0  0  0  0  0  0  0  0  0  0  0  0
  -40.0190   19.4990  -29.8140 C   0  0  0  0  0  2  0  0  0  0  0  0
  -41.3110   19.5580  -30.6420 C   0  0  0  0  0  2  0  0  0  0  0  0
  -42.2830   18.6190  -30.1190 N   0  0  0  0  0  0  0  0  0  0  0  0
  -42.6840   18.7960  -28.7290 C   0  0  0  0  0  2  0  0  0  0  0  0
  -41.5790   19.4340  -27.8470 C   0  0  0  0  0  2  0  0  0  0  0  0
  -39.0630   19.2620  -27.6130 C   0  0  0  0  0  0  0  0  0  0  0  0
  -37.9550   19.2110  -28.1660 O   0  0  0  0  0  0  0  0  0  0  0  0
  -43.1780   18.0240  -31.0350 C   0  0  0  0  0  0  0  0  0  0  0  0
  -44.4900   18.4990  -31.2460 C   0  0  0  0  0  3  0  0  0  0  0  0
  -45.3280   17.8250  -32.1780 C   0  0  0  0  0  0  0  0  0  0  0  0
  -44.8480   16.7390  -32.8480 N   0  0  0  0  0  0  0  0  0  0  0  0
  -43.6130   16.2690  -32.6520 N   0  0  0  0  0  0  0  0  0  0  0  0
  -42.7930   16.8860  -31.7770 C   0  0  0  0  0  0  0  0  0  0  0  0
  -41.5460   16.3110  -31.6050 N   0  0  0  0  0  0  0  0  0  0  0  0
  -41.0790   16.6300  -30.7640 H   0  0  0  0  0  0  0  0  0  0  0  0
  -41.4960   15.3150  -31.7610 H   0  0  0  0  0  0  0  0  0  0  0  0
  -46.7470   18.2300  -32.4750 C   0  0  0  0  0  0  0  0  0  0  0  0
  -47.6330   17.5100  -33.3430 C   0  0  0  0  0  0  0  0  0  0  0  0
  -48.9600   17.9370  -33.5540 C   0  0  0  0  0  3  0  0  0  0  0  0
  -49.4520   19.0860  -32.9210 C   0  0  0  0  0  3  0  0  0  0  0  0
  -48.6060   19.8190  -32.0780 C   0  0  0  0  0  3  0  0  0  0  0  0
  -47.2800   19.3960  -31.8660 C   0  0  0  0  0  3  0  0  0  0  0  0
  -47.2650   16.3770  -34.0130 O   0  0  0  0  0  0  0  0  0  0  0  0
  -46.3470   16.1700  -33.8350 H   0  0  0  0  0  0  0  0  0  0  0  0
  1  2  1  0
  2  3  2  0
  3  9  1  0
  4  6  2  0
  5  4  1  0
  5  1  2  0
  6  3  1  0
  7 12  1  0
  7 10  1  0
  8 10  2  0
  9 11  1  0
  9  7  2  0
 11  8  1  0
 13  5  1  0
 14 15  2  0
 14 16  1  0
 16 13  1  0
 17 16  1  0
 18 22  2  0
 18 21  1  0
 19 23  1  0
 19 14  1  0
 20 21  1  0
 20 24  1  0
 21 19  1  0
 24 25  1  0
 24 23  1  0
 26 25  1  0
 27 31  1  0
 27 18  1  0
 31 29  1  6
 31 30  1  0
 31 28  1  0
 32 35  1  0
 32 27  1  0
 33 32  1  0
 34 33  2  0
 36 37  1  1
 36 33  1  0
 38 39  1  0
 38 36  1  0
 39 36  1  0
 40  1  1  0
 41 43  1  0
 42 41  2  0
 43 40  1  0
 44 47  2  0
 44 42  1  0
 45 46  1  0
 45 43  2  0
 47 45  1  0
 49 44  1  0
 49 48  1  0
 50 55  1  0
 50 56  1  0
 51 50  1  0
 52 53  1  0
 52 51  1  0
 53 54  1  0
 54 55  1  0
 56 49  1  0
 57 56  2  0
 58 53  1  0
 59 58  1  0
 60 59  2  0
 61 62  2  0
 61 60  1  0
 62 63  1  0
 63 64  1  0
 63 58  2  0
 64 65  1  0
 66 64  1  0
 67 60  1  0
 67 72  1  0
 68 67  2  0
 69 68  1  0
 69 70  2  0
 70 71  1  0
 71 72  2  0
 73 74  1  0
 73 68  1  0
M  ISO  4  40 101  43 101  50 100  56 100
M  END
>  <TORSDO>  (145) 
F 16

>  <SCORE>  (145) 
-14.438

>  <name>  (145) 
144

>  <ligand_id>  (145) 
144

>  <original_smiles>  (145) 
[H]Oc1c([H])c([H])c([H])c([H])c1-c1nnc(N([H])[H])c(N2C([H])([H])C([H])([H])N(C(=O)C([H])(c3nc(C([H])([H])[H])c(Oc4c([H])c(-c5sc([H])nc5C([H])([H])[H])c([H])c([H])c4C([H])([H])N([H])C(=O)C4([H])N(C(=O)C([H])(N([H])C(=O)C5(F)C([H])([H])C5([H])[H])C(C([H])([H])[H])(C([H])([H])[H])C([H])([H])[H])C([H])([H])C([H])(O[H])C4([H])[H])c([H])c3[H])C([H])([H])[H])C([H])([H])C2([H])[H])c1[H]

>  <smiles>  (145) 
[H]Oc1c([H])c([H])c([H])c([H])c1-c1nnc(N([H])[H])c(N2C([H])([H])C([H])([H])N(C(=O)C([H])(c3nc(C([H])([H])[H])c(Oc4c([H])c(-c5sc([H])nc5C([H])([H])[H])c([H])c([H])c4C([H])([H])N([H])C(=O)C4([H])N(C(=O)C([H])(N([H])C(=O)C5(F)C([H])([H])C5([H])[H])C(C([H])([H])[H])(C([H])([H])[H])C([H])([H])[H])C([H])([H])C([H])(O[H])C4([H])[H])c([H])c3[H])C([H])([H])[H])C([H])([H])C2([H])[H])c1[H]

$$$$
145:0:0
     RDKit          3D

 76 84  0  0  1  0  0  0  0  0999 V2000
  -37.5040   13.4870  -23.6970 C   0  0  0  0  0  0  0  0  0  0  0  0
  -36.8220   13.3920  -22.4620 C   0  0  0  0  0  3  0  0  0  0  0  0
  -35.5210   12.8590  -22.3830 C   0  0  0  0  0  0  0  0  0  0  0  0
  -35.5830   12.4680  -24.7970 C   0  0  0  0  0  3  0  0  0  0  0  0
  -36.8930   12.9910  -24.8700 C   0  0  0  0  0  0  0  0  0  0  0  0
  -34.9010   12.4160  -23.5690 C   0  0  0  0  0  3  0  0  0  0  0  0
  -35.3050   12.2670  -19.8850 C   0  0  0  0  0  0  0  0  0  0  0  0
  -33.1570   12.7040  -19.3190 C   0  0  0  0  0  3  0  0  0  0  0  0
  -34.8390   12.7370  -21.0970 C   0  0  0  0  0  0  0  0  0  0  0  0
  -34.3320   12.2490  -18.8830 N   0  0  0  0  0  0  0  0  0  0  0  0
  -33.1600   13.2130  -20.9940 S   0  0  0  0  0  0  0  0  0  0  0  0
  -36.6720   11.7670  -19.5380 C   0  0  0  0  0  1  0  0  0  0  0  0
  -37.6600   13.0230  -26.1930 C   0  0  0  0  0  2  0  0  0  0  0  0
  -36.2470   13.7700  -28.0870 C   0  0  0  0  0  0  0  0  0  0  0  0
  -36.4850   14.9690  -27.9240 O   0  0  0  0  0  0  0  0  0  0  0  0
  -36.8150   12.8060  -27.3610 N   0  0  0  0  0  0  0  0  0  0  0  0
  -36.5730   11.8470  -27.5740 H   0  0  0  0  0  0  0  0  0  0  0  0
  -36.1520   14.4870  -31.1090 C   0  0  0  0  0  0  0  0  0  0  0  0
  -35.2040   13.3070  -29.1170 C   0  0  0  0  0  3  0  0  0  0  0  0
  -33.6980   14.5010  -30.5790 C   0  0  0  0  0  2  0  0  0  0  0  0
  -35.1020   14.1690  -30.3080 N   0  0  0  0  0  0  0  0  0  0  0  0
  -37.2840   14.0330  -30.9060 O   0  0  0  0  0  0  0  0  0  0  0  0
  -33.8110   13.3280  -28.4690 C   0  0  0  0  0  2  0  0  0  0  0  0
  -32.8660   13.6680  -29.6050 C   0  0  0  0  0  3  0  0  0  0  0  0
  -32.4360   12.4890  -30.2700 O   0  0  0  0  0  0  0  0  0  0  0  0
  -33.2020   12.0290  -30.5990 H   0  0  0  0  0  0  0  0  0  0  0  0
  -35.9440   15.4050  -32.3420 C   0  0  0  0  0  3  0  0  0  0  0  0
  -36.7170   14.8260  -33.4530 N   0  0  0  0  0  0  0  0  0  0  0  0
  -36.2220   14.2590  -34.5620 C   0  0  0  0  0  0  0  0  0  0  0  0
  -35.0110   14.2340  -34.8010 O   0  0  0  0  0  0  0  0  0  0  0  0
  -37.7160   14.7470  -33.3180 H   0  0  0  0  0  0  0  0  0  0  0  0
  -37.2370   13.6520  -35.4930 C   0  0  1  0  0  0  0  0  0  0  0  0
  -38.5140   13.5740  -34.9590 F   0  0  0  0  0  0  0  0  0  0  0  0
  -37.1310   13.9130  -36.9780 C   0  0  0  0  0  2  0  0  0  0  0  0
  -36.8250   12.5370  -36.4290 C   0  0  0  0  0  2  0  0  0  0  0  0
  -35.6630   17.4990  -30.8520 C   0  0  0  0  0  1  0  0  0  0  0  0
  -35.9240   17.7510  -33.3100 C   0  0  0  0  0  1  0  0  0  0  0  0
  -37.8840   17.0750  -31.9090 C   0  0  0  0  0  1  0  0  0  0  0  0
  -36.3620   16.9010  -32.0970 C   0  0  1  0  0  0  0  0  0  0  0  0
  -38.7310   14.0980  -23.8230 O   0  0  0  0  0  0  0  0  0  0  0  0
  -39.0630   15.0920  -22.8540 C   0  0  0  0  0  2  0  0  0  0  0  0
  -36.9740   16.4840  -23.8180 C   0  0  0  0  0  2  0  0  0  0  0  0
  -36.7860   17.9840  -24.0300 C   0  0  0  0  0  2  0  0  0  0  0  0
  -38.9810   17.6690  -23.1410 C   0  0  0  0  0  2  0  0  0  0  0  0
  -38.1820   16.3850  -22.8610 C   0  0  0  0  0  3  0  0  0  0  0  0
  -38.1160   18.5600  -23.9150 N   0  0  0  0  0  0  0  0  0  0  0  0
  -40.6490   19.3220  -27.9360 N   0  0  0  0  0  0  0  0  0  0  0  0
  -40.3390   19.8650  -29.2620 C   0  0  0  0  0  2  0  0  0  0  0  0
  -41.5250   19.7220  -30.2630 C   0  0  0  0  0  2  0  0  0  0  0  0
  -42.4990   18.7100  -29.8410 N   0  0  0  0  0  0  0  0  0  0  0  0
  -43.0160   18.7750  -28.4730 C   0  0  0  0  0  2  0  0  0  0  0  0
  -42.0380   19.4810  -27.5060 C   0  0  0  0  0  2  0  0  0  0  0  0
  -38.5240   20.4920  -25.3880 C   0  0  0  0  0  3  0  0  0  0  0  0
  -38.6360   19.1620  -25.0810 C   0  0  0  0  0  0  0  0  0  0  0  0
  -39.7760   19.5080  -26.9320 C   0  0  0  0  0  3  0  0  0  0  0  0
  -39.7350   17.1370  -26.2500 C   0  0  0  0  0  1  0  0  0  0  0  0
  -39.3760   18.5520  -26.0730 N   0  0  0  0  0  0  0  0  0  0  0  0
  -39.2490   20.6720  -26.5370 N   0  0  0  0  0  0  0  0  0  0  0  0
  -39.4100   21.5680  -26.9790 H   0  0  0  0  0  0  0  0  0  0  0  0
  -43.2900   18.0930  -30.8350 C   0  0  0  0  0  0  0  0  0  0  0  0
  -44.6190   18.4820  -31.1090 C   0  0  0  0  0  3  0  0  0  0  0  0
  -45.3500   17.7910  -32.1150 C   0  0  0  0  0  0  0  0  0  0  0  0
  -44.7550   16.7680  -32.7920 N   0  0  0  0  0  0  0  0  0  0  0  0
  -43.5040   16.3730  -32.5340 N   0  0  0  0  0  0  0  0  0  0  0  0
  -42.7850   17.0100  -31.5890 C   0  0  0  0  0  0  0  0  0  0  0  0
  -41.5150   16.5160  -31.3400 N   0  0  0  0  0  0  0  0  0  0  0  0
  -41.1610   16.8350  -30.4450 H   0  0  0  0  0  0  0  0  0  0  0  0
  -41.3730   15.5340  -31.5220 H   0  0  0  0  0  0  0  0  0  0  0  0
  -46.7720   18.1120  -32.4870 C   0  0  0  0  0  0  0  0  0  0  0  0
  -47.5620   17.3510  -33.4080 C   0  0  0  0  0  0  0  0  0  0  0  0
  -48.8970   17.7010  -33.6940 C   0  0  0  0  0  3  0  0  0  0  0  0
  -49.4910   18.8150  -33.0850 C   0  0  0  0  0  3  0  0  0  0  0  0
  -48.7430   19.5850  -32.1860 C   0  0  0  0  0  3  0  0  0  0  0  0
  -47.4100   19.2370  -31.8970 C   0  0  0  0  0  3  0  0  0  0  0  0
  -47.0890   16.2500  -34.0640 O   0  0  0  0  0  0  0  0  0  0  0  0
  -46.1730   16.0960  -33.8300 H   0  0  0  0  0  0  0  0  0  0  0  0
  1  2  1  0
  2  3  2  0
  3  9  1  0
  4  6  2  0
  5  4  1  0
  5  1  2  0
  6  3  1  0
  7 12  1  0
  7 10  1  0
  8 10  2  0
  9 11  1  0
  9  7  2  0
 11  8  1  0
 13  5  1  0
 14 15  2  0
 14 16  1  0
 16 13  1  0
 17 16  1  0
 18 22  2  0
 18 21  1  0
 19 23  1  0
 19 14  1  0
 20 21  1  0
 20 24  1  0
 21 19  1  0
 24 25  1  0
 24 23  1  0
 26 25  1  0
 27 39  1  0
 27 18  1  0
 28 31  1  0
 28 27  1  0
 29 28  1  0
 30 29  2  0
 32 33  1  1
 32 29  1  0
 34 35  1  0
 34 32  1  0
 35 32  1  0
 39 37  1  6
 39 38  1  0
 39 36  1  0
 40  1  1  0
 40 41  1  0
 42 45  1  0
 43 46  1  0
 43 42  1  0
 44 45  1  0
 45 41  1  0
 46 44  1  0
 47 48  1  0
 47 52  1  0
 47 55  1  0
 49 50  1  0
 49 48  1  0
 50 51  1  0
 51 52  1  0
 53 54  2  0
 54 46  1  0
 55 58  1  0
 55 57  1  0
 56 57  1  0
 57 54  1  0
 58 53  1  0
 59 58  1  0
 60 50  1  0
 61 60  1  0
 62 61  2  0
 63 64  2  0
 63 62  1  0
 64 65  1  0
 65 66  1  0
 65 60  2  0
 66 67  1  0
 68 66  1  0
 69 62  1  0
 69 74  1  0
 70 69  2  0
 71 70  1  0
 71 72  2  0
 72 73  1  0
 73 74  2  0
 75 76  1  0
 75 70  1  0
M  ISO  4  40 101  41 101  47 100  55 100
M  END
>  <TORSDO>  (146) 
F 16

>  <SCORE>  (146) 
-13.710

>  <name>  (146) 
145

>  <ligand_id>  (146) 
145

>  <original_smiles>  (146) 
[H]Oc1c([H])c([H])c([H])c([H])c1-c1nnc(N([H])[H])c(N2C([H])([H])C([H])([H])N(c3n(C([H])([H])[H])c(N4C([H])([H])C([H])([H])C([H])(C([H])([H])Oc5c([H])c(-c6sc([H])nc6C([H])([H])[H])c([H])c([H])c5C([H])([H])N([H])C(=O)C5([H])N(C(=O)C([H])(N([H])C(=O)C6(F)C([H])([H])C6([H])[H])C(C([H])([H])[H])(C([H])([H])[H])C([H])([H])[H])C([H])([H])C([H])(O[H])C5([H])[H])C4([H])[H])c([H])[n+]3[H])C([H])([H])C2([H])[H])c1[H]

>  <smiles>  (146) 
[H]Oc1c([H])c([H])c([H])c([H])c1-c1nnc(N([H])[H])c(N2C([H])([H])C([H])([H])N(c3n(C([H])([H])[H])c(N4C([H])([H])C([H])([H])C([H])(C([H])([H])Oc5c([H])c(-c6sc([H])nc6C([H])([H])[H])c([H])c([H])c5C([H])([H])N([H])C(=O)C5([H])N(C(=O)C([H])(N([H])C(=O)C6(F)C([H])([H])C6([H])[H])C(C([H])([H])[H])(C([H])([H])[H])C([H])([H])[H])C([H])([H])C([H])(O[H])C5([H])[H])C4([H])[H])c([H])[n+]3[H])C([H])([H])C2([H])[H])c1[H]

$$$$
146:0:0
     RDKit          3D

 80 89  0  0  1  0  0  0  0  0999 V2000
  -38.6200   14.0770  -23.7520 O   0  0  0  0  0  0  0  0  0  0  0  0
  -41.6520   19.7530  -24.8140 C   0  0  0  0  0  3  0  0  0  0  0  0
  -41.6490   18.5340  -24.1270 C   0  0  0  0  0  3  0  0  0  0  0  0
  -40.5770   20.6680  -24.6490 C   0  0  0  0  0  0  0  0  0  0  0  0
  -39.7660   20.4340  -23.4900 C   0  0  0  0  0  0  0  0  0  0  0  0
  -40.6410   18.3010  -23.1890 C   0  0  0  0  0  0  0  0  0  0  0  0
  -39.0780   15.4200  -21.6270 C   0  0  0  0  0  2  0  0  0  0  0  0
  -39.6930   16.8030  -21.4690 C   0  0  0  0  0  2  0  0  0  0  0  0
  -39.9780   16.0890  -23.7190 C   0  0  0  0  0  2  0  0  0  0  0  0
  -38.7600   15.3680  -23.1320 C   0  0  0  0  0  3  0  0  0  0  0  0
  -38.8510   21.4570  -22.8170 C   0  0  0  0  0  1  0  0  0  0  0  0
  -39.7830   19.2660  -22.8170 N   0  0  0  0  0  0  0  0  0  0  0  0
  -40.4650   17.0040  -22.6900 N   0  0  0  0  0  0  0  0  0  0  0  0
  -38.6680   20.9080  -27.1690 C   0  0  0  0  0  2  0  0  0  0  0  0
  -38.9380   21.8720  -26.0190 C   0  0  0  0  0  2  0  0  0  0  0  0
  -40.9930   21.5430  -26.9660 C   0  0  0  0  0  2  0  0  0  0  0  0
  -39.9680   20.9170  -27.9700 C   0  0  0  0  0  3  0  0  0  0  0  0
  -40.3360   21.6710  -25.6410 N   0  0  0  0  0  0  0  0  0  0  0  0
  -40.2020   19.5660  -28.5270 N   0  0  0  0  0  0  0  0  0  0  0  0
  -39.9330   19.4370  -29.9730 C   0  0  0  0  0  2  0  0  0  0  0  0
  -41.2090   19.5430  -30.8500 C   0  0  0  0  0  2  0  0  0  0  0  0
  -42.2450   18.6600  -30.3440 N   0  0  0  0  0  0  0  0  0  0  0  0
  -42.6350   18.9850  -28.9860 C   0  0  0  0  0  2  0  0  0  0  0  0
  -41.4060   18.8750  -28.0810 C   0  0  0  0  0  2  0  0  0  0  0  0
  -43.1880   18.0850  -31.2230 C   0  0  0  0  0  0  0  0  0  0  0  0
  -44.4860   18.6020  -31.3870 C   0  0  0  0  0  3  0  0  0  0  0  0
  -45.3880   17.9400  -32.2610 C   0  0  0  0  0  0  0  0  0  0  0  0
  -44.9670   16.8310  -32.9440 N   0  0  0  0  0  0  0  0  0  0  0  0
  -43.7390   16.3280  -32.8030 N   0  0  0  0  0  0  0  0  0  0  0  0
  -42.8710   16.9180  -31.9580 C   0  0  0  0  0  0  0  0  0  0  0  0
  -41.6430   16.2980  -31.8030 N   0  0  0  0  0  0  0  0  0  0  0  0
  -40.9660   16.8690  -31.3210 H   0  0  0  0  0  0  0  0  0  0  0  0
  -41.2910   15.7710  -32.5870 H   0  0  0  0  0  0  0  0  0  0  0  0
  -46.8120   18.3700  -32.4940 C   0  0  0  0  0  0  0  0  0  0  0  0
  -47.7460   17.6550  -33.3160 C   0  0  0  0  0  0  0  0  0  0  0  0
  -49.0710   18.1000  -33.4790 C   0  0  0  0  0  3  0  0  0  0  0  0
  -49.5220   19.2580  -32.8340 C   0  0  0  0  0  3  0  0  0  0  0  0
  -48.6350   19.9900  -32.0330 C   0  0  0  0  0  3  0  0  0  0  0  0
  -47.3060   19.5520  -31.8690 C   0  0  0  0  0  3  0  0  0  0  0  0
  -47.4300   16.5070  -33.9860 O   0  0  0  0  0  0  0  0  0  0  0  0
  -46.5150   16.2850  -33.8190 H   0  0  0  0  0  0  0  0  0  0  0  0
  -37.3660   13.5090  -23.7020 C   0  0  0  0  0  0  0  0  0  0  0  0
  -36.6610   13.3950  -22.4820 C   0  0  0  0  0  3  0  0  0  0  0  0
  -35.3720   12.8400  -22.4080 C   0  0  0  0  0  0  0  0  0  0  0  0
  -35.4770   12.4320  -24.8140 C   0  0  0  0  0  3  0  0  0  0  0  0
  -36.7820   12.9800  -24.8790 C   0  0  0  0  0  0  0  0  0  0  0  0
  -34.7760   12.3810  -23.5980 C   0  0  0  0  0  3  0  0  0  0  0  0
  -35.1620   12.2260  -19.9090 C   0  0  0  0  0  0  0  0  0  0  0  0
  -33.0270   12.7040  -19.3240 C   0  0  0  0  0  3  0  0  0  0  0  0
  -34.6940   12.7050  -21.1190 C   0  0  0  0  0  0  0  0  0  0  0  0
  -34.1980   12.2280  -18.9010 N   0  0  0  0  0  0  0  0  0  0  0  0
  -33.0230   13.2070  -21.0020 S   0  0  0  0  0  0  0  0  0  0  0  0
  -36.5180   11.6970  -19.5680 C   0  0  0  0  0  1  0  0  0  0  0  0
  -37.5580   12.9850  -26.1950 C   0  0  0  0  0  2  0  0  0  0  0  0
  -36.1740   13.7200  -28.1180 C   0  0  0  0  0  0  0  0  0  0  0  0
  -36.4320   14.9170  -27.9740 O   0  0  0  0  0  0  0  0  0  0  0  0
  -36.7240   12.7580  -27.3690 N   0  0  0  0  0  0  0  0  0  0  0  0
  -36.4760   11.8010  -27.5740 H   0  0  0  0  0  0  0  0  0  0  0  0
  -36.0980   14.4260  -31.1480 C   0  0  0  0  0  0  0  0  0  0  0  0
  -35.1300   13.2630  -29.1500 C   0  0  0  0  0  3  0  0  0  0  0  0
  -33.6460   14.4760  -30.6260 C   0  0  0  0  0  2  0  0  0  0  0  0
  -35.0420   14.1220  -30.3480 N   0  0  0  0  0  0  0  0  0  0  0  0
  -37.2210   13.9560  -30.9390 O   0  0  0  0  0  0  0  0  0  0  0  0
  -33.7310   13.3130  -28.5110 C   0  0  0  0  0  2  0  0  0  0  0  0
  -32.7970   13.6600  -29.6530 C   0  0  0  0  0  3  0  0  0  0  0  0
  -32.3600   12.4840  -30.3140 O   0  0  0  0  0  0  0  0  0  0  0  0
  -33.1250   12.0220  -30.6410 H   0  0  0  0  0  0  0  0  0  0  0  0
  -35.9080   15.3430  -32.3850 C   0  0  0  0  0  3  0  0  0  0  0  0
  -35.6760   17.4310  -30.8810 C   0  0  0  0  0  1  0  0  0  0  0  0
  -35.8800   17.6940  -33.3390 C   0  0  0  0  0  1  0  0  0  0  0  0
  -37.8730   16.9990  -31.9910 C   0  0  0  0  0  1  0  0  0  0  0  0
  -36.3440   16.8360  -32.1430 C   0  0  1  0  0  0  0  0  0  0  0  0
  -36.6790   14.7490  -33.4910 N   0  0  0  0  0  0  0  0  0  0  0  0
  -36.1840   14.2180  -34.6160 C   0  0  0  0  0  0  0  0  0  0  0  0
  -34.9780   14.2490  -34.8790 O   0  0  0  0  0  0  0  0  0  0  0  0
  -37.6700   14.6220  -33.3330 H   0  0  0  0  0  0  0  0  0  0  0  0
  -37.1930   13.5840  -35.5370 C   0  0  1  0  0  0  0  0  0  0  0  0
  -38.4490   13.4290  -34.9710 F   0  0  0  0  0  0  0  0  0  0  0  0
  -37.1400   13.8850  -37.0150 C   0  0  0  0  0  2  0  0  0  0  0  0
  -36.7510   12.5130  -36.5120 C   0  0  0  0  0  2  0  0  0  0  0  0
  1 42  1  0
  2  4  2  0
  2  3  1  0
  3  6  2  0
  4  5  1  0
  5 12  2  0
  5 11  1  0
  6 12  1  0
  6 13  1  0
  7  8  1  0
  9 10  1  0
  9 13  1  0
 10  1  1  0
 10  7  1  0
 13  8  1  0
 14 15  1  0
 15 18  1  0
 16 18  1  0
 17 14  1  0
 17 16  1  0
 18  4  1  0
 19 20  1  0
 19 24  1  0
 19 17  1  0
 21 22  1  0
 21 20  1  0
 22 23  1  0
 23 24  1  0
 25 22  1  0
 26 25  1  0
 27 26  2  0
 28 29  2  0
 28 27  1  0
 29 30  1  0
 30 31  1  0
 30 25  2  0
 31 32  1  0
 33 31  1  0
 34 27  1  0
 34 39  1  0
 35 34  2  0
 36 35  1  0
 36 37  2  0
 37 38  1  0
 38 39  2  0
 40 41  1  0
 40 35  1  0
 42 43  1  0
 43 44  2  0
 44 50  1  0
 45 47  2  0
 46 45  1  0
 46 42  2  0
 47 44  1  0
 48 53  1  0
 48 51  1  0
 49 51  2  0
 50 52  1  0
 50 48  2  0
 52 49  1  0
 54 46  1  0
 55 56  2  0
 55 57  1  0
 57 54  1  0
 58 57  1  0
 59 63  2  0
 59 62  1  0
 60 64  1  0
 60 55  1  0
 61 62  1  0
 61 65  1  0
 62 60  1  0
 65 66  1  0
 65 64  1  0
 67 66  1  0
 68 72  1  0
 68 59  1  0
 72 70  1  6
 72 71  1  0
 72 69  1  0
 73 76  1  0
 73 68  1  0
 74 73  1  0
 75 74  2  0
 77 78  1  1
 77 74  1  0
 79 80  1  0
 79 77  1  0
 80 77  1  0
M  ISO  4   1 101  10 101  17 100  19 100
M  END
>  <TORSDO>  (147) 
F 16

>  <SCORE>  (147) 
-14.674

>  <name>  (147) 
146

>  <ligand_id>  (147) 
146

>  <original_smiles>  (147) 
[H]Oc1c([H])c([H])c([H])c([H])c1-c1nnc(N([H])[H])c(N2C([H])([H])C([H])([H])N(C3([H])C([H])([H])N(c4c(C([H])([H])[H])nc(N5C([H])([H])C([H])([H])C([H])(Oc6c([H])c(-c7sc([H])nc7C([H])([H])[H])c([H])c([H])c6C([H])([H])N([H])C(=O)C6([H])N(C(=O)C([H])(N([H])C(=O)C7(F)C([H])([H])C7([H])[H])C(C([H])([H])[H])(C([H])([H])[H])C([H])([H])[H])C([H])([H])C([H])(O[H])C6([H])[H])C5([H])[H])c([H])c4[H])C([H])([H])C3([H])[H])C([H])([H])C2([H])[H])c1[H]

>  <smiles>  (147) 
[H]Oc1c([H])c([H])c([H])c([H])c1-c1nnc(N([H])[H])c(N2C([H])([H])C([H])([H])N(C3([H])C([H])([H])N(c4c(C([H])([H])[H])nc(N5C([H])([H])C([H])([H])C([H])(Oc6c([H])c(-c7sc([H])nc7C([H])([H])[H])c([H])c([H])c6C([H])([H])N([H])C(=O)C6([H])N(C(=O)C([H])(N([H])C(=O)C7(F)C([H])([H])C7([H])[H])C(C([H])([H])[H])(C([H])([H])[H])C([H])([H])[H])C([H])([H])C([H])(O[H])C6([H])[H])C5([H])[H])c([H])c4[H])C([H])([H])C3([H])[H])C([H])([H])C2([H])[H])c1[H]

$$$$
147:0:0
     RDKit          3D

 73 80  0  0  1  0  0  0  0  0999 V2000
  -37.4520   13.5250  -23.7510 C   0  0  0  0  0  0  0  0  0  0  0  0
  -36.7590   13.4530  -22.5130 C   0  0  0  0  0  3  0  0  0  0  0  0
  -35.4990   12.8110  -22.3960 C   0  0  0  0  0  0  0  0  0  0  0  0
  -35.5940   12.3170  -24.7860 C   0  0  0  0  0  3  0  0  0  0  0  0
  -36.8650   12.9260  -24.8960 C   0  0  0  0  0  0  0  0  0  0  0  0
  -34.9180   12.2670  -23.5570 C   0  0  0  0  0  3  0  0  0  0  0  0
  -35.2660   12.2070  -19.8940 C   0  0  0  0  0  0  0  0  0  0  0  0
  -33.0970   12.5670  -19.3470 C   0  0  0  0  0  3  0  0  0  0  0  0
  -34.8020   12.6690  -21.1110 C   0  0  0  0  0  0  0  0  0  0  0  0
  -34.2850   12.1570  -18.9000 N   0  0  0  0  0  0  0  0  0  0  0  0
  -33.0980   13.0660  -21.0260 S   0  0  0  0  0  0  0  0  0  0  0  0
  -36.6460   11.7460  -19.5440 C   0  0  0  0  0  1  0  0  0  0  0  0
  -37.5930   12.9290  -26.2390 C   0  0  0  0  0  2  0  0  0  0  0  0
  -36.2090   13.7170  -28.1120 C   0  0  0  0  0  0  0  0  0  0  0  0
  -36.4810   14.9090  -27.9450 O   0  0  0  0  0  0  0  0  0  0  0  0
  -36.7350   12.7350  -27.3860 N   0  0  0  0  0  0  0  0  0  0  0  0
  -36.4700   11.7850  -27.6060 H   0  0  0  0  0  0  0  0  0  0  0  0
  -36.1620   14.4460  -31.1230 C   0  0  0  0  0  0  0  0  0  0  0  0
  -35.1730   13.2720  -29.1480 C   0  0  0  0  0  3  0  0  0  0  0  0
  -33.7010   14.4870  -30.6180 C   0  0  0  0  0  2  0  0  0  0  0  0
  -35.0990   14.1380  -30.3350 N   0  0  0  0  0  0  0  0  0  0  0  0
  -37.2880   13.9790  -30.9080 O   0  0  0  0  0  0  0  0  0  0  0  0
  -33.7750   13.3110  -28.5110 C   0  0  0  0  0  2  0  0  0  0  0  0
  -32.8500   13.6610  -29.6550 C   0  0  0  0  0  3  0  0  0  0  0  0
  -32.4260   12.4830  -30.3250 O   0  0  0  0  0  0  0  0  0  0  0  0
  -33.1960   12.0220  -30.6420 H   0  0  0  0  0  0  0  0  0  0  0  0
  -35.9770   15.3680  -32.3550 C   0  0  0  0  0  3  0  0  0  0  0  0
  -36.7380   14.7700  -33.4640 N   0  0  0  0  0  0  0  0  0  0  0  0
  -36.2320   14.2200  -34.5770 C   0  0  0  0  0  0  0  0  0  0  0  0
  -35.0240   14.2300  -34.8200 O   0  0  0  0  0  0  0  0  0  0  0  0
  -37.7340   14.6600  -33.3210 H   0  0  0  0  0  0  0  0  0  0  0  0
  -37.2340   13.5900  -35.5060 C   0  0  1  0  0  0  0  0  0  0  0  0
  -38.5060   13.4770  -34.9680 F   0  0  0  0  0  0  0  0  0  0  0  0
  -37.1410   13.8610  -36.9900 C   0  0  0  0  0  2  0  0  0  0  0  0
  -36.7970   12.4900  -36.4500 C   0  0  0  0  0  2  0  0  0  0  0  0
  -35.7450   17.4680  -30.8650 C   0  0  0  0  0  1  0  0  0  0  0  0
  -36.0060   17.7120  -33.3210 C   0  0  0  0  0  1  0  0  0  0  0  0
  -37.9570   16.9930  -31.9240 C   0  0  0  0  0  1  0  0  0  0  0  0
  -36.4300   16.8540  -32.1100 C   0  0  1  0  0  0  0  0  0  0  0  0
  -38.6250   14.2630  -23.8300 O   0  0  0  0  0  0  0  0  0  0  0  0
  -39.8250   13.6100  -24.2470 C   0  0  0  0  0  2  0  0  0  0  0  0
  -41.5860   13.3910  -26.0160 C   0  0  0  0  0  1  0  0  0  0  0  0
  -41.8890   15.0500  -24.2170 C   0  0  0  0  0  1  0  0  0  0  0  0
  -40.8250   14.4280  -25.1530 C   0  0  1  0  0  0  0  0  0  0  0  0
  -40.2120   19.0340  -28.2340 N   0  0  0  0  0  0  0  0  0  0  0  0
  -39.8690   19.3110  -29.6460 C   0  0  0  0  0  2  0  0  0  0  0  0
  -41.1010   19.4120  -30.6000 C   0  0  0  0  0  2  0  0  0  0  0  0
  -42.2380   18.6520  -30.0810 N   0  0  0  0  0  0  0  0  0  0  0  0
  -42.6520   18.9130  -28.7010 C   0  0  0  0  0  2  0  0  0  0  0  0
  -41.5220   19.5840  -27.8760 C   0  0  0  0  0  2  0  0  0  0  0  0
  -40.2810   15.5630  -27.4720 C   0  0  0  0  0  3  0  0  0  0  0  0
  -39.8550   16.8110  -25.5170 C   0  0  0  0  0  3  0  0  0  0  0  0
  -40.2510   15.5730  -26.0560 C   0  0  0  0  0  0  0  0  0  0  0  0
  -39.9450   17.8240  -27.5780 C   0  0  0  0  0  0  0  0  0  0  0  0
  -40.1440   16.6830  -28.2210 N   0  0  0  0  0  0  0  0  0  0  0  0
  -39.7400   17.9260  -26.2720 N   0  0  0  0  0  0  0  0  0  0  0  0
  -43.1310   18.0380  -30.9860 C   0  0  0  0  0  0  0  0  0  0  0  0
  -44.4260   18.5410  -31.2260 C   0  0  0  0  0  3  0  0  0  0  0  0
  -45.2790   17.8610  -32.1360 C   0  0  0  0  0  0  0  0  0  0  0  0
  -44.8290   16.7350  -32.7620 N   0  0  0  0  0  0  0  0  0  0  0  0
  -43.6100   16.2350  -32.5390 N   0  0  0  0  0  0  0  0  0  0  0  0
  -42.7780   16.8570  -31.6780 C   0  0  0  0  0  0  0  0  0  0  0  0
  -41.5570   16.2460  -31.4560 N   0  0  0  0  0  0  0  0  0  0  0  0
  -41.1290   16.5590  -30.5880 H   0  0  0  0  0  0  0  0  0  0  0  0
  -41.5290   15.2460  -31.5930 H   0  0  0  0  0  0  0  0  0  0  0  0
  -46.6810   18.3000  -32.4550 C   0  0  0  0  0  0  0  0  0  0  0  0
  -47.5840   17.5850  -33.3100 C   0  0  0  0  0  0  0  0  0  0  0  0
  -48.8930   18.0520  -33.5440 C   0  0  0  0  0  3  0  0  0  0  0  0
  -49.3530   19.2340  -32.9470 C   0  0  0  0  0  3  0  0  0  0  0  0
  -48.4920   19.9610  -32.1140 C   0  0  0  0  0  3  0  0  0  0  0  0
  -47.1840   19.5000  -31.8790 C   0  0  0  0  0  3  0  0  0  0  0  0
  -47.2510   16.4220  -33.9440 O   0  0  0  0  0  0  0  0  0  0  0  0
  -46.3440   16.1820  -33.7480 H   0  0  0  0  0  0  0  0  0  0  0  0
  1  2  1  0
  2  3  2  0
  3  9  1  0
  4  6  2  0
  5  4  1  0
  5  1  2  0
  6  3  1  0
  7 12  1  0
  7 10  1  0
  8 10  2  0
  9 11  1  0
  9  7  2  0
 11  8  1  0
 13  5  1  0
 14 15  2  0
 14 16  1  0
 16 13  1  0
 17 16  1  0
 18 22  2  0
 18 21  1  0
 19 23  1  0
 19 14  1  0
 20 21  1  0
 20 24  1  0
 21 19  1  0
 24 25  1  0
 24 23  1  0
 26 25  1  0
 27 39  1  0
 27 18  1  0
 28 31  1  0
 28 27  1  0
 29 28  1  0
 30 29  2  0
 32 33  1  1
 32 29  1  0
 34 35  1  0
 34 32  1  0
 35 32  1  0
 39 37  1  6
 39 38  1  0
 39 36  1  0
 40  1  1  0
 41 40  1  0
 44 42  1  6
 44 41  1  0
 44 43  1  0
 45 50  1  0
 45 54  1  0
 46 45  1  0
 47 48  1  0
 47 46  1  0
 48 49  1  0
 49 50  1  0
 51 53  2  0
 53 52  1  0
 53 44  1  0
 54 56  1  0
 55 54  2  0
 55 51  1  0
 56 52  2  0
 57 48  1  0
 58 57  1  0
 59 58  2  0
 60 61  2  0
 60 59  1  0
 61 62  1  0
 62 63  1  0
 62 57  2  0
 63 64  1  0
 65 63  1  0
 66 59  1  0
 66 71  1  0
 67 66  2  0
 68 67  1  0
 68 69  2  0
 69 70  1  0
 70 71  2  0
 72 73  1  0
 72 67  1  0
M  ISO  4  40 101  41 101  45 100  54 100
M  END
>  <TORSDO>  (148) 
F 16

>  <SCORE>  (148) 
-14.483

>  <name>  (148) 
147

>  <ligand_id>  (148) 
147

>  <original_smiles>  (148) 
[H]Oc1c([H])c([H])c([H])c([H])c1-c1nnc(N([H])[H])c(N2C([H])([H])C([H])([H])N(c3nc([H])c(C(C([H])([H])[H])(C([H])([H])[H])C([H])([H])Oc4c([H])c(-c5sc([H])nc5C([H])([H])[H])c([H])c([H])c4C([H])([H])N([H])C(=O)C4([H])N(C(=O)C([H])(N([H])C(=O)C5(F)C([H])([H])C5([H])[H])C(C([H])([H])[H])(C([H])([H])[H])C([H])([H])[H])C([H])([H])C([H])(O[H])C4([H])[H])c([H])n3)C([H])([H])C2([H])[H])c1[H]

>  <smiles>  (148) 
[H]Oc1c([H])c([H])c([H])c([H])c1-c1nnc(N([H])[H])c(N2C([H])([H])C([H])([H])N(c3nc([H])c(C(C([H])([H])[H])(C([H])([H])[H])C([H])([H])Oc4c([H])c(-c5sc([H])nc5C([H])([H])[H])c([H])c([H])c4C([H])([H])N([H])C(=O)C4([H])N(C(=O)C([H])(N([H])C(=O)C5(F)C([H])([H])C5([H])[H])C(C([H])([H])[H])(C([H])([H])[H])C([H])([H])[H])C([H])([H])C([H])(O[H])C4([H])[H])c([H])n3)C([H])([H])C2([H])[H])c1[H]

$$$$
148:0:0
     RDKit          3D

 76 84  0  0  1  0  0  0  0  0999 V2000
  -37.4230   13.3170  -23.6250 C   0  0  0  0  0  0  0  0  0  0  0  0
  -36.6930   13.3320  -22.4320 C   0  0  0  0  0  3  0  0  0  0  0  0
  -35.3910   12.8220  -22.3770 C   0  0  0  0  0  0  0  0  0  0  0  0
  -35.4980   12.4030  -24.7870 C   0  0  0  0  0  3  0  0  0  0  0  0
  -36.8240   12.8920  -24.8410 C   0  0  0  0  0  0  0  0  0  0  0  0
  -34.7980   12.3550  -23.5680 C   0  0  0  0  0  3  0  0  0  0  0  0
  -35.1730   12.2810  -19.8720 C   0  0  0  0  0  0  0  0  0  0  0  0
  -33.0140   12.6980  -19.3300 C   0  0  0  0  0  3  0  0  0  0  0  0
  -34.7010   12.7120  -21.0980 C   0  0  0  0  0  0  0  0  0  0  0  0
  -34.1940   12.2770  -18.8760 N   0  0  0  0  0  0  0  0  0  0  0  0
  -33.0140   13.1510  -21.0210 S   0  0  0  0  0  0  0  0  0  0  0  0
  -36.5460   11.8100  -19.5040 C   0  0  0  0  0  1  0  0  0  0  0  0
  -37.5930   12.9030  -26.1660 C   0  0  0  0  0  2  0  0  0  0  0  0
  -36.2240   13.6370  -28.0910 C   0  0  0  0  0  0  0  0  0  0  0  0
  -36.4530   14.8300  -27.9080 O   0  0  0  0  0  0  0  0  0  0  0  0
  -36.7740   12.6680  -27.3520 N   0  0  0  0  0  0  0  0  0  0  0  0
  -36.5580   11.7070  -27.5790 H   0  0  0  0  0  0  0  0  0  0  0  0
  -36.1960   14.4050  -31.1100 C   0  0  0  0  0  0  0  0  0  0  0  0
  -35.1950   13.2130  -29.1470 C   0  0  0  0  0  3  0  0  0  0  0  0
  -33.7370   14.4780  -30.6030 C   0  0  0  0  0  2  0  0  0  0  0  0
  -35.1300   14.1010  -30.3230 N   0  0  0  0  0  0  0  0  0  0  0  0
  -37.3150   13.9230  -30.8970 O   0  0  0  0  0  0  0  0  0  0  0  0
  -33.7970   13.2740  -28.5100 C   0  0  0  0  0  2  0  0  0  0  0  0
  -32.8740   13.6580  -29.6480 C   0  0  0  0  0  3  0  0  0  0  0  0
  -32.4300   12.4950  -30.3290 O   0  0  0  0  0  0  0  0  0  0  0  0
  -33.1930   12.0250  -30.6510 H   0  0  0  0  0  0  0  0  0  0  0  0
  -36.0240   15.3350  -32.3400 C   0  0  0  0  0  3  0  0  0  0  0  0
  -35.8590   17.4370  -30.8450 C   0  0  0  0  0  1  0  0  0  0  0  0
  -36.0850   17.6780  -33.3070 C   0  0  0  0  0  1  0  0  0  0  0  0
  -38.0400   16.9210  -31.9570 C   0  0  0  0  0  1  0  0  0  0  0  0
  -36.5090   16.8130  -32.1020 C   0  0  1  0  0  0  0  0  0  0  0  0
  -36.7700   14.7250  -33.4540 N   0  0  0  0  0  0  0  0  0  0  0  0
  -36.2480   14.1950  -34.5690 C   0  0  0  0  0  0  0  0  0  0  0  0
  -35.0400   14.2340  -34.8090 O   0  0  0  0  0  0  0  0  0  0  0  0
  -37.7620   14.5880  -33.3100 H   0  0  0  0  0  0  0  0  0  0  0  0
  -37.2350   13.5500  -35.5060 C   0  0  1  0  0  0  0  0  0  0  0  0
  -38.5070   13.4120  -34.9740 F   0  0  0  0  0  0  0  0  0  0  0  0
  -37.1390   13.8270  -36.9880 C   0  0  0  0  0  2  0  0  0  0  0  0
  -36.7720   12.4620  -36.4520 C   0  0  0  0  0  2  0  0  0  0  0  0
  -38.7570   13.5470  -23.4650 O   0  0  0  0  0  0  0  0  0  0  0  0
  -38.6820   15.8750  -23.7990 C   0  0  0  0  0  3  0  0  0  0  0  0
  -40.2960   14.4160  -24.9430 C   0  0  0  0  0  3  0  0  0  0  0  0
  -39.6780   16.5440  -25.8860 C   0  0  0  0  0  0  0  0  0  0  0  0
  -39.2810   14.6320  -24.0130 C   0  0  0  0  0  0  0  0  0  0  0  0
  -38.8900   16.8660  -24.7460 C   0  0  0  0  0  0  0  0  0  0  0  0
  -40.4610   15.3670  -25.9350 C   0  0  0  0  0  0  0  0  0  0  0  0
  -38.0770   18.3710  -24.4940 Cl  0  0  0  0  0  0  0  0  0  0  0  0
  -41.4980   14.9730  -27.2690 Cl  0  0  0  0  0  0  0  0  0  0  0  0
  -38.9300   17.0550  -28.3150 C   0  0  0  0  0  2  0  0  0  0  0  0
  -39.7210   17.3630  -27.0780 C   0  0  0  0  0  3  0  0  0  0  0  0
  -38.6620   18.3360  -27.5350 C   0  0  0  0  0  3  0  0  0  0  0  0
  -40.3390   19.5030  -28.6510 N   0  0  0  0  0  0  0  0  0  0  0  0
  -40.1120   19.6050  -30.0860 C   0  0  0  0  0  2  0  0  0  0  0  0
  -41.4100   19.4780  -30.8930 C   0  0  0  0  0  2  0  0  0  0  0  0
  -42.3490   18.5570  -30.2630 N   0  0  0  0  0  0  0  0  0  0  0  0
  -42.7270   18.7970  -28.8730 C   0  0  0  0  0  2  0  0  0  0  0  0
  -41.7020   19.7010  -28.1440 C   0  0  0  0  0  2  0  0  0  0  0  0
  -39.2890   19.6300  -27.8440 C   0  0  0  0  0  0  0  0  0  0  0  0
  -39.0180   20.6670  -27.2330 O   0  0  0  0  0  0  0  0  0  0  0  0
  -43.2950   17.9810  -31.1340 C   0  0  0  0  0  0  0  0  0  0  0  0
  -44.5950   18.5000  -31.3140 C   0  0  0  0  0  3  0  0  0  0  0  0
  -45.4760   17.8500  -32.2200 C   0  0  0  0  0  0  0  0  0  0  0  0
  -45.0460   16.7470  -32.8970 N   0  0  0  0  0  0  0  0  0  0  0  0
  -43.8230   16.2360  -32.7290 N   0  0  0  0  0  0  0  0  0  0  0  0
  -42.9640   16.8280  -31.8780 C   0  0  0  0  0  0  0  0  0  0  0  0
  -41.7260   16.2280  -31.7340 N   0  0  0  0  0  0  0  0  0  0  0  0
  -41.2380   16.5580  -30.9120 H   0  0  0  0  0  0  0  0  0  0  0  0
  -41.6940   15.2290  -31.8760 H   0  0  0  0  0  0  0  0  0  0  0  0
  -46.8830   18.3000  -32.4890 C   0  0  0  0  0  0  0  0  0  0  0  0
  -47.8080   17.6060  -33.3380 C   0  0  0  0  0  0  0  0  0  0  0  0
  -49.1240   18.0760  -33.5250 C   0  0  0  0  0  3  0  0  0  0  0  0
  -49.5670   19.2440  -32.8880 C   0  0  0  0  0  3  0  0  0  0  0  0
  -48.6830   19.9510  -32.0600 C   0  0  0  0  0  3  0  0  0  0  0  0
  -47.3690   19.4840  -31.8700 C   0  0  0  0  0  3  0  0  0  0  0  0
  -47.4940   16.4600  -34.0090 O   0  0  0  0  0  0  0  0  0  0  0  0
  -46.5810   16.2170  -33.8450 H   0  0  0  0  0  0  0  0  0  0  0  0
  1 40  1  0
  1  2  1  0
  2  3  2  0
  3  9  1  0
  4  6  2  0
  5  4  1  0
  5  1  2  0
  6  3  1  0
  7 12  1  0
  7 10  1  0
  8 10  2  0
  9 11  1  0
  9  7  2  0
 11  8  1  0
 13  5  1  0
 14 15  2  0
 14 16  1  0
 16 13  1  0
 17 16  1  0
 18 22  2  0
 18 21  1  0
 19 23  1  0
 19 14  1  0
 20 21  1  0
 20 24  1  0
 21 19  1  0
 24 25  1  0
 24 23  1  0
 26 25  1  0
 27 31  1  0
 27 18  1  0
 31 29  1  6
 31 30  1  0
 31 28  1  0
 32 35  1  0
 32 27  1  0
 33 32  1  0
 34 33  2  0
 36 37  1  1
 36 33  1  0
 38 39  1  0
 38 36  1  0
 39 36  1  0
 42 44  2  0
 43 45  1  0
 44 41  1  0
 44 40  1  0
 45 47  1  0
 45 41  2  0
 46 43  2  0
 46 42  1  0
 48 46  1  0
 49 51  1  0
 49 50  1  0
 50 43  1  0
 51 58  1  0
 51 50  1  0
 52 57  1  0
 52 58  1  0
 53 52  1  0
 54 55  1  0
 54 53  1  0
 55 56  1  0
 56 57  1  0
 58 59  2  0
 60 55  1  0
 61 60  1  0
 62 61  2  0
 63 64  2  0
 63 62  1  0
 64 65  1  0
 65 66  1  0
 65 60  2  0
 66 67  1  0
 68 66  1  0
 69 62  1  0
 69 74  1  0
 70 69  2  0
 71 70  1  0
 71 72  2  0
 72 73  1  0
 73 74  2  0
 75 76  1  0
 75 70  1  0
M  ISO  4  40 101  44 101  52 100  58 100
M  END
>  <TORSDO>  (149) 
F 16

>  <SCORE>  (149) 
-14.711

>  <name>  (149) 
148

>  <ligand_id>  (149) 
148

>  <original_smiles>  (149) 
[H]Oc1c([H])c([H])c([H])c([H])c1-c1nnc(N([H])[H])c(N2C([H])([H])C([H])([H])N(C(=O)C3([H])C([H])([H])C3([H])c3c(Cl)c([H])c(Oc4c([H])c(-c5sc([H])nc5C([H])([H])[H])c([H])c([H])c4C([H])([H])N([H])C(=O)C4([H])N(C(=O)C([H])(N([H])C(=O)C5(F)C([H])([H])C5([H])[H])C(C([H])([H])[H])(C([H])([H])[H])C([H])([H])[H])C([H])([H])C([H])(O[H])C4([H])[H])c([H])c3Cl)C([H])([H])C2([H])[H])c1[H]

>  <smiles>  (149) 
[H]Oc1c([H])c([H])c([H])c([H])c1-c1nnc(N([H])[H])c(N2C([H])([H])C([H])([H])N(C(=O)C3([H])C([H])([H])C3([H])c3c(Cl)c([H])c(Oc4c([H])c(-c5sc([H])nc5C([H])([H])[H])c([H])c([H])c4C([H])([H])N([H])C(=O)C4([H])N(C(=O)C([H])(N([H])C(=O)C5(F)C([H])([H])C5([H])[H])C(C([H])([H])[H])(C([H])([H])[H])C([H])([H])[H])C([H])([H])C([H])(O[H])C4([H])[H])c([H])c3Cl)C([H])([H])C2([H])[H])c1[H]

$$$$
149:0:0
     RDKit          3D

 83 92  0  0  1  0  0  0  0  0999 V2000
  -38.7060   16.2370  -23.2020 C   0  0  0  0  0  2  0  0  0  0  0  0
  -39.2850   17.3360  -22.2900 C   0  0  0  0  0  2  0  0  0  0  0  0
  -38.6290   19.2700  -26.6000 C   0  0  0  0  0  3  0  0  0  0  0  0
  -34.8490   20.2510  -27.1790 C   0  0  0  0  0  2  0  0  0  0  0  0
  -34.7640   21.1700  -25.9330 C   0  0  0  0  0  2  0  0  0  0  0  0
  -40.2780   20.9540  -23.0680 C   0  0  0  0  0  2  0  0  0  0  0  0
  -36.2990   20.0170  -27.6680 C   0  0  0  0  0  2  0  0  0  0  0  0
  -35.7290   20.7420  -24.8030 C   0  0  0  0  0  2  0  0  0  0  0  0
  -39.0250   21.4050  -23.8500 C   0  0  0  0  0  2  0  0  0  0  0  0
  -40.0130   19.7170  -22.1810 C   0  0  0  0  0  2  0  0  0  0  0  0
  -38.0440   19.1360  -23.5050 C   0  0  0  0  0  2  0  0  0  0  0  0
  -37.1370   19.5230  -26.4720 C   0  0  0  0  0  3  0  0  0  0  0  0
  -37.1340   20.6020  -25.4060 C   0  0  0  0  0  3  0  0  0  0  0  0
  -38.3590   20.2130  -24.5660 C   0  0  2  0  0  0  0  0  0  0  0  0
  -39.2800   19.6610  -25.5700 N   0  0  0  0  0  2  0  0  0  0  0  0
  -39.3330   18.6550  -22.9630 N   0  0  1  0  0  4  0  0  0  0  0  0
  -39.8960   18.5440  -23.7960 H   0  0  0  0  0  0  0  0  0  0  0  0
  -40.1810   19.1580  -28.4710 N   0  0  0  0  0  0  0  0  0  0  0  0
  -39.9940   19.4700  -29.8970 C   0  0  0  0  0  2  0  0  0  0  0  0
  -41.2900   19.4810  -30.7230 C   0  0  0  0  0  2  0  0  0  0  0  0
  -42.2860   18.5980  -30.1400 N   0  0  0  0  0  0  0  0  0  0  0  0
  -42.6650   18.8610  -28.7520 C   0  0  0  0  0  2  0  0  0  0  0  0
  -41.5090   19.5090  -27.9310 C   0  0  0  0  0  2  0  0  0  0  0  0
  -39.1420   18.5630  -27.8360 C   0  0  0  0  0  0  0  0  0  0  0  0
  -38.4580   17.6730  -28.3500 O   0  0  0  0  0  0  0  0  0  0  0  0
  -43.2090   18.0100  -31.0350 C   0  0  0  0  0  0  0  0  0  0  0  0
  -44.5080   18.5150  -31.2500 C   0  0  0  0  0  3  0  0  0  0  0  0
  -45.3640   17.8530  -32.1720 C   0  0  0  0  0  0  0  0  0  0  0  0
  -44.9160   16.7450  -32.8300 N   0  0  0  0  0  0  0  0  0  0  0  0
  -43.6940   16.2460  -32.6300 N   0  0  0  0  0  0  0  0  0  0  0  0
  -42.8570   16.8530  -31.7660 C   0  0  0  0  0  0  0  0  0  0  0  0
  -41.6230   16.2540  -31.5860 N   0  0  0  0  0  0  0  0  0  0  0  0
  -41.1490   16.5940  -30.7580 H   0  0  0  0  0  0  0  0  0  0  0  0
  -41.5940   15.2520  -31.7110 H   0  0  0  0  0  0  0  0  0  0  0  0
  -46.7720   18.2910  -32.4750 C   0  0  0  0  0  0  0  0  0  0  0  0
  -47.6790   17.5770  -33.3250 C   0  0  0  0  0  0  0  0  0  0  0  0
  -48.9940   18.0380  -33.5410 C   0  0  0  0  0  3  0  0  0  0  0  0
  -49.4510   19.2140  -32.9330 C   0  0  0  0  0  3  0  0  0  0  0  0
  -48.5840   19.9420  -32.1070 C   0  0  0  0  0  3  0  0  0  0  0  0
  -47.2710   19.4850  -31.8870 C   0  0  0  0  0  3  0  0  0  0  0  0
  -47.3480   16.4190  -33.9700 O   0  0  0  0  0  0  0  0  0  0  0  0
  -46.4360   16.1860  -33.7890 H   0  0  0  0  0  0  0  0  0  0  0  0
  -39.1680   14.8310  -22.8190 C   0  0  0  0  0  2  0  0  0  0  0  0
  -38.6400   13.9310  -23.7830 O   0  0  0  0  0  0  0  0  0  0  0  0
  -37.3510   13.4580  -23.6630 C   0  0  0  0  0  0  0  0  0  0  0  0
  -36.6280   13.4170  -22.4430 C   0  0  0  0  0  3  0  0  0  0  0  0
  -35.3410   12.8460  -22.3710 C   0  0  0  0  0  0  0  0  0  0  0  0
  -35.4540   12.3890  -24.7700 C   0  0  0  0  0  3  0  0  0  0  0  0
  -36.7570   12.9320  -24.8320 C   0  0  0  0  0  0  0  0  0  0  0  0
  -34.7550   12.3480  -23.5530 C   0  0  0  0  0  3  0  0  0  0  0  0
  -35.0840   12.2560  -19.8720 C   0  0  0  0  0  0  0  0  0  0  0  0
  -32.9260   12.6910  -19.3400 C   0  0  0  0  0  3  0  0  0  0  0  0
  -34.6360   12.7220  -21.0930 C   0  0  0  0  0  0  0  0  0  0  0  0
  -34.0970   12.2440  -18.8840 N   0  0  0  0  0  0  0  0  0  0  0  0
  -32.9510   13.1840  -21.0220 S   0  0  0  0  0  0  0  0  0  0  0  0
  -36.4470   11.7540  -19.5070 C   0  0  0  0  0  1  0  0  0  0  0  0
  -37.5480   12.9300  -26.1420 C   0  0  0  0  0  2  0  0  0  0  0  0
  -36.1880   13.6890  -28.0680 C   0  0  0  0  0  0  0  0  0  0  0  0
  -36.4430   14.8820  -27.8980 O   0  0  0  0  0  0  0  0  0  0  0  0
  -36.7260   12.7160  -27.3280 N   0  0  0  0  0  0  0  0  0  0  0  0
  -36.4870   11.7590  -27.5500 H   0  0  0  0  0  0  0  0  0  0  0  0
  -36.1450   14.4520  -31.0800 C   0  0  0  0  0  0  0  0  0  0  0  0
  -35.1550   13.2510  -29.1190 C   0  0  0  0  0  3  0  0  0  0  0  0
  -33.6860   14.4840  -30.5870 C   0  0  0  0  0  2  0  0  0  0  0  0
  -35.0810   14.1320  -30.3000 N   0  0  0  0  0  0  0  0  0  0  0  0
  -37.2700   13.9840  -30.8670 O   0  0  0  0  0  0  0  0  0  0  0  0
  -33.7510   13.2860  -28.4910 C   0  0  0  0  0  2  0  0  0  0  0  0
  -32.8290   13.6500  -29.6370 C   0  0  0  0  0  3  0  0  0  0  0  0
  -32.4060   12.4820  -30.3220 O   0  0  0  0  0  0  0  0  0  0  0  0
  -33.1760   12.0210  -30.6390 H   0  0  0  0  0  0  0  0  0  0  0  0
  -35.9620   15.3840  -32.3090 C   0  0  0  0  0  3  0  0  0  0  0  0
  -35.7690   17.4850  -30.8100 C   0  0  0  0  0  1  0  0  0  0  0  0
  -36.0220   17.7310  -33.2700 C   0  0  0  0  0  1  0  0  0  0  0  0
  -37.9650   16.9740  -31.8920 C   0  0  0  0  0  1  0  0  0  0  0  0
  -36.4360   16.8630  -32.0620 C   0  0  1  0  0  0  0  0  0  0  0  0
  -36.7120   14.7790  -33.4240 N   0  0  0  0  0  0  0  0  0  0  0  0
  -36.1970   14.2420  -34.5380 C   0  0  0  0  0  0  0  0  0  0  0  0
  -34.9870   14.2630  -34.7780 O   0  0  0  0  0  0  0  0  0  0  0  0
  -37.7080   14.6640  -33.2890 H   0  0  0  0  0  0  0  0  0  0  0  0
  -37.1910   13.6100  -35.4760 C   0  0  1  0  0  0  0  0  0  0  0  0
  -38.4650   13.4890  -34.9450 F   0  0  0  0  0  0  0  0  0  0  0  0
  -37.0910   13.8880  -36.9570 C   0  0  0  0  0  2  0  0  0  0  0  0
  -36.7430   12.5160  -36.4210 C   0  0  0  0  0  2  0  0  0  0  0  0
  1 43  1  0
  1  2  1  0
  3 24  1  0
  3 12  1  0
  3 15  1  0
  4  5  1  0
  5  8  1  0
  6 10  1  0
  7  4  1  0
  9  6  1  0
 11 16  1  0
 12  7  1  0
 12 13  1  0
 13  8  1  0
 13 14  1  0
 14  9  1  1
 14 11  1  0
 15 14  1  0
 16  2  1  0
 16 10  1  0
 16 17  1  6
 18 23  1  0
 18 24  1  0
 19 18  1  0
 20 21  1  0
 20 19  1  0
 21 22  1  0
 22 23  1  0
 25 24  2  0
 26 21  1  0
 27 26  1  0
 28 27  2  0
 29 30  2  0
 29 28  1  0
 30 31  1  0
 31 32  1  0
 31 26  2  0
 32 33  1  0
 34 32  1  0
 35 28  1  0
 35 40  1  0
 36 35  2  0
 37 36  1  0
 37 38  2  0
 38 39  1  0
 39 40  2  0
 41 42  1  0
 41 36  1  0
 44 45  1  0
 44 43  1  0
 45 46  1  0
 46 47  2  0
 47 53  1  0
 48 50  2  0
 49 48  1  0
 49 45  2  0
 50 47  1  0
 51 56  1  0
 51 54  1  0
 52 54  2  0
 53 55  1  0
 53 51  2  0
 55 52  1  0
 57 49  1  0
 58 59  2  0
 58 60  1  0
 60 57  1  0
 61 60  1  0
 62 66  2  0
 62 65  1  0
 63 67  1  0
 63 58  1  0
 64 65  1  0
 64 68  1  0
 65 63  1  0
 68 69  1  0
 68 67  1  0
 70 69  1  0
 71 75  1  0
 71 62  1  0
 75 73  1  6
 75 74  1  0
 75 72  1  0
 76 79  1  0
 76 71  1  0
 77 76  1  0
 78 77  2  0
 80 81  1  1
 80 77  1  0
 82 83  1  0
 82 80  1  0
 83 80  1  0
M  ISO  4  18 100  24 100  43 101  44 101
M  END
>  <TORSDO>  (150) 
F 18

>  <SCORE>  (150) 
-14.455

>  <name>  (150) 
149

>  <ligand_id>  (150) 
149

>  <original_smiles>  (150) 
[H]Oc1c([H])c([H])c([H])c([H])c1-c1nnc(N([H])[H])c(N2C([H])([H])C([H])([H])N(C(=O)C3=NC4(C([H])([H])C([H])([H])C([H])([H])[N+]([H])(C([H])([H])C([H])([H])C([H])([H])Oc5c([H])c(-c6sc([H])nc6C([H])([H])[H])c([H])c([H])c5C([H])([H])N([H])C(=O)C5([H])N(C(=O)C([H])(N([H])C(=O)C6(F)C([H])([H])C6([H])[H])C(C([H])([H])[H])(C([H])([H])[H])C([H])([H])[H])C([H])([H])C([H])(O[H])C5([H])[H])C4([H])[H])C4([H])C([H])([H])C([H])([H])C([H])([H])C([H])([H])C34[H])C([H])([H])C2([H])[H])c1[H]

>  <smiles>  (150) 
[H]Oc1c([H])c([H])c([H])c([H])c1-c1nnc(N([H])[H])c(N2C([H])([H])C([H])([H])N(C(=O)C3=NC4(C([H])([H])C([H])([H])C([H])([H])[N+]([H])(C([H])([H])C([H])([H])C([H])([H])Oc5c([H])c(-c6sc([H])nc6C([H])([H])[H])c([H])c([H])c5C([H])([H])N([H])C(=O)C5([H])N(C(=O)C([H])(N([H])C(=O)C6(F)C([H])([H])C6([H])[H])C(C([H])([H])[H])(C([H])([H])[H])C([H])([H])[H])C([H])([H])C([H])(O[H])C5([H])[H])C4([H])[H])C4([H])C([H])([H])C([H])([H])C([H])([H])C([H])([H])C34[H])C([H])([H])C2([H])[H])c1[H]

$$$$
150:0:0
     RDKit          3D

 72 79  0  0  1  0  0  0  0  0999 V2000
  -37.3970   13.4980  -23.7030 C   0  0  0  0  0  0  0  0  0  0  0  0
  -36.7120   13.4540  -22.4700 C   0  0  0  0  0  3  0  0  0  0  0  0
  -35.4430   12.8450  -22.3690 C   0  0  0  0  0  0  0  0  0  0  0  0
  -35.5390   12.3450  -24.7640 C   0  0  0  0  0  3  0  0  0  0  0  0
  -36.8230   12.9250  -24.8590 C   0  0  0  0  0  0  0  0  0  0  0  0
  -34.8570   12.3110  -23.5350 C   0  0  0  0  0  3  0  0  0  0  0  0
  -35.2290   12.2830  -19.8620 C   0  0  0  0  0  0  0  0  0  0  0  0
  -33.0680   12.6770  -19.3090 C   0  0  0  0  0  3  0  0  0  0  0  0
  -34.7570   12.7240  -21.0830 C   0  0  0  0  0  0  0  0  0  0  0  0
  -34.2550   12.2610  -18.8620 N   0  0  0  0  0  0  0  0  0  0  0  0
  -33.0620   13.1490  -20.9970 S   0  0  0  0  0  0  0  0  0  0  0  0
  -36.6080   11.8140  -19.5110 C   0  0  0  0  0  1  0  0  0  0  0  0
  -37.6010   12.9090  -26.1760 C   0  0  0  0  0  2  0  0  0  0  0  0
  -36.2100   13.6780  -28.0800 C   0  0  0  0  0  0  0  0  0  0  0  0
  -36.4670   14.8710  -27.9140 O   0  0  0  0  0  0  0  0  0  0  0  0
  -36.7590   12.7030  -27.3490 N   0  0  0  0  0  0  0  0  0  0  0  0
  -36.5140   11.7480  -27.5690 H   0  0  0  0  0  0  0  0  0  0  0  0
  -36.1490   14.4120  -31.1010 C   0  0  0  0  0  0  0  0  0  0  0  0
  -35.1640   13.2390  -29.1190 C   0  0  0  0  0  3  0  0  0  0  0  0
  -33.6920   14.4710  -30.5900 C   0  0  0  0  0  2  0  0  0  0  0  0
  -35.0870   14.1090  -30.3090 N   0  0  0  0  0  0  0  0  0  0  0  0
  -37.2710   13.9350  -30.8940 O   0  0  0  0  0  0  0  0  0  0  0  0
  -33.7630   13.2860  -28.4840 C   0  0  0  0  0  2  0  0  0  0  0  0
  -32.8370   13.6520  -29.6260 C   0  0  0  0  0  3  0  0  0  0  0  0
  -32.3950   12.4830  -30.3000 O   0  0  0  0  0  0  0  0  0  0  0  0
  -33.1590   12.0090  -30.6170 H   0  0  0  0  0  0  0  0  0  0  0  0
  -35.9670   15.3390  -32.3340 C   0  0  0  0  0  3  0  0  0  0  0  0
  -35.7310   17.4430  -30.8510 C   0  0  0  0  0  1  0  0  0  0  0  0
  -36.0200   17.6820  -33.3050 C   0  0  0  0  0  1  0  0  0  0  0  0
  -37.9520   16.9520  -31.8810 C   0  0  0  0  0  1  0  0  0  0  0  0
  -36.4260   16.8220  -32.0870 C   0  0  1  0  0  0  0  0  0  0  0  0
  -36.7230   14.7400  -33.4450 N   0  0  0  0  0  0  0  0  0  0  0  0
  -36.2120   14.1910  -34.5560 C   0  0  0  0  0  0  0  0  0  0  0  0
  -35.0020   14.2030  -34.7960 O   0  0  0  0  0  0  0  0  0  0  0  0
  -37.7190   14.6300  -33.3090 H   0  0  0  0  0  0  0  0  0  0  0  0
  -37.2090   13.5540  -35.4880 C   0  0  1  0  0  0  0  0  0  0  0  0
  -38.4820   13.4330  -34.9510 F   0  0  0  0  0  0  0  0  0  0  0  0
  -37.1170   13.8250  -36.9710 C   0  0  0  0  0  2  0  0  0  0  0  0
  -36.7640   12.4570  -36.4320 C   0  0  0  0  0  2  0  0  0  0  0  0
  -38.6390   14.0620  -23.7670 O   0  0  0  0  0  0  0  0  0  0  0  0
  -38.6400   15.4820  -23.8940 C   0  0  0  0  0  2  0  0  0  0  0  0
  -41.5250   15.4130  -26.3650 C   0  0  0  0  0  3  0  0  0  0  0  0
  -41.0270   16.3330  -27.2970 C   0  0  0  0  0  3  0  0  0  0  0  0
  -40.7740   15.1850  -25.2060 C   0  0  0  0  0  3  0  0  0  0  0  0
  -39.8470   17.0530  -27.0110 C   0  0  0  0  0  0  0  0  0  0  0  0
  -39.5650   15.8790  -25.0260 C   0  0  0  0  0  0  0  0  0  0  0  0
  -39.1240   16.8150  -25.8890 N   0  0  0  0  0  0  0  0  0  0  0  0
  -40.1250   18.9910  -28.4990 N   0  0  0  0  0  0  0  0  0  0  0  0
  -39.8980   19.5930  -29.8190 C   0  0  0  0  0  2  0  0  0  0  0  0
  -41.1270   19.4180  -30.7530 C   0  0  0  0  0  2  0  0  0  0  0  0
  -42.1720   18.5830  -30.1580 N   0  0  0  0  0  0  0  0  0  0  0  0
  -42.6050   18.9640  -28.8130 C   0  0  0  0  0  2  0  0  0  0  0  0
  -41.4140   19.4130  -27.9250 C   0  0  0  0  0  2  0  0  0  0  0  0
  -39.2950   18.0380  -28.0130 C   0  0  0  0  0  0  0  0  0  0  0  0
  -38.1220   17.9200  -28.3890 O   0  0  0  0  0  0  0  0  0  0  0  0
  -43.1080   18.0030  -31.0470 C   0  0  0  0  0  0  0  0  0  0  0  0
  -44.4110   18.5140  -31.2390 C   0  0  0  0  0  3  0  0  0  0  0  0
  -45.2850   17.8600  -32.1510 C   0  0  0  0  0  0  0  0  0  0  0  0
  -44.8530   16.7510  -32.8150 N   0  0  0  0  0  0  0  0  0  0  0  0
  -43.6320   16.2420  -32.6330 N   0  0  0  0  0  0  0  0  0  0  0  0
  -42.7760   16.8420  -31.7830 C   0  0  0  0  0  0  0  0  0  0  0  0
  -41.5440   16.2330  -31.6220 N   0  0  0  0  0  0  0  0  0  0  0  0
  -41.0480   16.5660  -30.8060 H   0  0  0  0  0  0  0  0  0  0  0  0
  -41.5140   15.2330  -31.7550 H   0  0  0  0  0  0  0  0  0  0  0  0
  -46.6930   18.3090  -32.4330 C   0  0  0  0  0  0  0  0  0  0  0  0
  -47.6170   17.6080  -33.2770 C   0  0  0  0  0  0  0  0  0  0  0  0
  -48.9320   18.0800  -33.4750 C   0  0  0  0  0  3  0  0  0  0  0  0
  -49.3730   19.2540  -32.8490 C   0  0  0  0  0  3  0  0  0  0  0  0
  -48.4900   19.9690  -32.0300 C   0  0  0  0  0  3  0  0  0  0  0  0
  -47.1780   19.5030  -31.8310 C   0  0  0  0  0  3  0  0  0  0  0  0
  -47.3010   16.4530  -33.9380 O   0  0  0  0  0  0  0  0  0  0  0  0
  -46.3910   16.2080  -33.7730 H   0  0  0  0  0  0  0  0  0  0  0  0
  1  2  1  0
  2  3  2  0
  3  9  1  0
  4  6  2  0
  5  4  1  0
  5  1  2  0
  6  3  1  0
  7 12  1  0
  7 10  1  0
  8 10  2  0
  9 11  1  0
  9  7  2  0
 11  8  1  0
 13  5  1  0
 14 15  2  0
 14 16  1  0
 16 13  1  0
 17 16  1  0
 18 22  2  0
 18 21  1  0
 19 23  1  0
 19 14  1  0
 20 21  1  0
 20 24  1  0
 21 19  1  0
 24 25  1  0
 24 23  1  0
 26 25  1  0
 27 31  1  0
 27 18  1  0
 31 29  1  6
 31 30  1  0
 31 28  1  0
 32 35  1  0
 32 27  1  0
 33 32  1  0
 34 33  2  0
 36 37  1  1
 36 33  1  0
 38 39  1  0
 38 36  1  0
 39 36  1  0
 40  1  1  0
 41 40  1  0
 42 44  1  0
 43 45  1  0
 43 42  2  0
 44 46  2  0
 45 47  2  0
 46 41  1  0
 47 46  1  0
 48 54  1  0
 48 53  1  0
 49 48  1  0
 50 51  1  0
 50 49  1  0
 51 52  1  0
 52 53  1  0
 54 45  1  0
 55 54  2  0
 56 51  1  0
 57 56  1  0
 58 57  2  0
 59 60  2  0
 59 58  1  0
 60 61  1  0
 61 62  1  0
 61 56  2  0
 62 63  1  0
 64 62  1  0
 65 58  1  0
 65 70  1  0
 66 65  2  0
 67 66  1  0
 67 68  2  0
 68 69  1  0
 69 70  2  0
 71 72  1  0
 71 66  1  0
M  ISO  4  40 101  41 101  48 100  54 100
M  END
>  <TORSDO>  (151) 
F 16

>  <SCORE>  (151) 
-14.451

>  <name>  (151) 
150

>  <ligand_id>  (151) 
150

>  <original_smiles>  (151) 
[H]Oc1c([H])c([H])c([H])c([H])c1-c1nnc(N([H])[H])c(N2C([H])([H])C([H])([H])N(C(=O)c3nc(C([H])([H])Oc4c([H])c(-c5sc([H])nc5C([H])([H])[H])c([H])c([H])c4C([H])([H])N([H])C(=O)C4([H])N(C(=O)C([H])(N([H])C(=O)C5(F)C([H])([H])C5([H])[H])C(C([H])([H])[H])(C([H])([H])[H])C([H])([H])[H])C([H])([H])C([H])(O[H])C4([H])[H])c([H])c([H])c3[H])C([H])([H])C2([H])[H])c1[H]

>  <smiles>  (151) 
[H]Oc1c([H])c([H])c([H])c([H])c1-c1nnc(N([H])[H])c(N2C([H])([H])C([H])([H])N(C(=O)c3nc(C([H])([H])Oc4c([H])c(-c5sc([H])nc5C([H])([H])[H])c([H])c([H])c4C([H])([H])N([H])C(=O)C4([H])N(C(=O)C([H])(N([H])C(=O)C5(F)C([H])([H])C5([H])[H])C(C([H])([H])[H])(C([H])([H])[H])C([H])([H])[H])C([H])([H])C([H])(O[H])C4([H])[H])c([H])c([H])c3[H])C([H])([H])C2([H])[H])c1[H]

$$$$
151:0:0
     RDKit          3D

 79 87  0  0  1  0  0  0  0  0999 V2000
  -38.7040   14.0550  -23.4800 O   0  0  0  0  0  0  0  0  0  0  0  0
  -37.4710   13.4640  -23.6810 C   0  0  0  0  0  0  0  0  0  0  0  0
  -36.7270   13.4260  -22.4830 C   0  0  0  0  0  3  0  0  0  0  0  0
  -35.4490   12.8530  -22.3920 C   0  0  0  0  0  0  0  0  0  0  0  0
  -35.5800   12.3870  -24.7880 C   0  0  0  0  0  3  0  0  0  0  0  0
  -36.8840   12.9470  -24.8700 C   0  0  0  0  0  0  0  0  0  0  0  0
  -34.8730   12.3400  -23.5700 C   0  0  0  0  0  3  0  0  0  0  0  0
  -35.2160   12.2990  -19.8750 C   0  0  0  0  0  0  0  0  0  0  0  0
  -33.0560   12.7450  -19.3370 C   0  0  0  0  0  3  0  0  0  0  0  0
  -34.7580   12.7530  -21.1020 C   0  0  0  0  0  0  0  0  0  0  0  0
  -34.2300   12.2950  -18.8850 N   0  0  0  0  0  0  0  0  0  0  0  0
  -33.0750   13.2270  -21.0200 S   0  0  0  0  0  0  0  0  0  0  0  0
  -36.5750   11.7850  -19.5040 C   0  0  0  0  0  1  0  0  0  0  0  0
  -37.6130   12.9820  -26.2080 C   0  0  0  0  0  2  0  0  0  0  0  0
  -36.2310   13.7070  -28.1090 C   0  0  0  0  0  0  0  0  0  0  0  0
  -36.5010   14.9020  -27.9740 O   0  0  0  0  0  0  0  0  0  0  0  0
  -36.7630   12.7420  -27.3590 N   0  0  0  0  0  0  0  0  0  0  0  0
  -36.5200   11.7830  -27.5630 H   0  0  0  0  0  0  0  0  0  0  0  0
  -36.1860   14.4230  -31.1240 C   0  0  0  0  0  0  0  0  0  0  0  0
  -35.1940   13.2510  -29.1430 C   0  0  0  0  0  3  0  0  0  0  0  0
  -33.7260   14.4760  -30.6150 C   0  0  0  0  0  2  0  0  0  0  0  0
  -35.1210   14.1170  -30.3360 N   0  0  0  0  0  0  0  0  0  0  0  0
  -37.3100   13.9510  -30.9120 O   0  0  0  0  0  0  0  0  0  0  0  0
  -33.7920   13.2990  -28.5100 C   0  0  0  0  0  2  0  0  0  0  0  0
  -32.8680   13.6570  -29.6530 C   0  0  0  0  0  3  0  0  0  0  0  0
  -32.4260   12.4840  -30.3200 O   0  0  0  0  0  0  0  0  0  0  0  0
  -33.1870   12.0190  -30.6550 H   0  0  0  0  0  0  0  0  0  0  0  0
  -36.0020   15.3480  -32.3560 C   0  0  0  0  0  3  0  0  0  0  0  0
  -35.8310   17.4390  -30.8470 C   0  0  0  0  0  1  0  0  0  0  0  0
  -36.0030   17.7010  -33.3090 C   0  0  0  0  0  1  0  0  0  0  0  0
  -38.0010   16.9560  -31.9870 C   0  0  0  0  0  1  0  0  0  0  0  0
  -36.4690   16.8310  -32.1200 C   0  0  1  0  0  0  0  0  0  0  0  0
  -36.7470   14.7410  -33.4710 N   0  0  0  0  0  0  0  0  0  0  0  0
  -36.2260   14.2190  -34.5910 C   0  0  0  0  0  0  0  0  0  0  0  0
  -35.0180   14.2660  -34.8360 O   0  0  0  0  0  0  0  0  0  0  0  0
  -37.7380   14.6000  -33.3250 H   0  0  0  0  0  0  0  0  0  0  0  0
  -37.2110   13.5680  -35.5260 C   0  0  1  0  0  0  0  0  0  0  0  0
  -38.4770   13.4150  -34.9880 F   0  0  0  0  0  0  0  0  0  0  0  0
  -37.1250   13.8570  -37.0060 C   0  0  0  0  0  2  0  0  0  0  0  0
  -36.7440   12.4920  -36.4810 C   0  0  0  0  0  2  0  0  0  0  0  0
  -39.8180   14.2200  -24.3390 C   0  0  0  0  0  2  0  0  0  0  0  0
  -41.8740   17.4790  -24.7170 C   0  0  0  0  0  3  0  0  0  0  0  0
  -40.8550   18.4690  -24.7180 C   0  0  0  0  0  0  0  0  0  0  0  0
  -40.1770   15.6970  -24.5000 C   0  0  0  0  0  0  0  0  0  0  0  0
  -39.5440   18.0330  -24.6900 C   0  0  0  0  0  0  0  0  0  0  0  0
  -41.5360   16.1120  -24.5790 C   0  0  0  0  0  0  0  0  0  0  0  0
  -39.1660   16.6910  -24.5990 C   0  0  0  0  0  0  0  0  0  0  0  0
  -39.5400   19.9070  -25.7710 C   0  0  0  0  0  3  0  0  0  0  0  0
  -40.9900   19.9970  -24.9860 C   0  0  1  0  0  0  0  0  0  0  0  0
  -40.2250   21.2200  -24.2030 C   0  0  0  0  0  1  0  0  0  0  0  0
  -41.9610   20.1570  -23.7240 C   0  0  0  0  0  1  0  0  0  0  0  0
  -38.7010   19.0260  -25.0260 O   0  0  0  0  0  0  0  0  0  0  0  0
  -42.8300   14.9670  -24.5430 Cl  0  0  0  0  0  0  0  0  0  0  0  0
  -37.4800   16.3590  -24.7720 Cl  0  0  0  0  0  0  0  0  0  0  0  0
  -40.4370   19.4300  -28.2030 N   0  0  0  0  0  0  0  0  0  0  0  0
  -40.0910   19.4800  -29.6480 C   0  0  0  0  0  2  0  0  0  0  0  0
  -41.3030   19.5700  -30.6150 C   0  0  0  0  0  2  0  0  0  0  0  0
  -42.3770   18.7010  -30.1590 N   0  0  0  0  0  0  0  0  0  0  0  0
  -42.8350   18.8740  -28.7910 C   0  0  0  0  0  2  0  0  0  0  0  0
  -41.8550   19.6860  -27.9230 C   0  0  0  0  0  2  0  0  0  0  0  0
  -39.4330   19.4410  -27.2810 C   0  0  0  0  0  0  0  0  0  0  0  0
  -38.2900   19.1330  -27.6460 O   0  0  0  0  0  0  0  0  0  0  0  0
  -43.2720   18.1420  -31.1020 C   0  0  0  0  0  0  0  0  0  0  0  0
  -44.5880   18.6120  -31.2870 C   0  0  0  0  0  3  0  0  0  0  0  0
  -45.4320   17.9620  -32.2330 C   0  0  0  0  0  0  0  0  0  0  0  0
  -44.9500   16.8980  -32.9350 N   0  0  0  0  0  0  0  0  0  0  0  0
  -43.7140   16.4240  -32.7600 N   0  0  0  0  0  0  0  0  0  0  0  0
  -42.8910   17.0230  -31.8720 C   0  0  0  0  0  0  0  0  0  0  0  0
  -41.6480   16.4440  -31.6950 N   0  0  0  0  0  0  0  0  0  0  0  0
  -41.2360   16.7810  -30.8330 H   0  0  0  0  0  0  0  0  0  0  0  0
  -41.6250   15.4430  -31.7940 H   0  0  0  0  0  0  0  0  0  0  0  0
  -46.8520   18.3710  -32.5140 C   0  0  0  0  0  0  0  0  0  0  0  0
  -47.7450   17.6540  -33.3820 C   0  0  0  0  0  0  0  0  0  0  0  0
  -49.0700   18.0870  -33.5860 C   0  0  0  0  0  3  0  0  0  0  0  0
  -49.5530   19.2370  -32.9430 C   0  0  0  0  0  3  0  0  0  0  0  0
  -48.7040   19.9640  -32.0970 C   0  0  0  0  0  3  0  0  0  0  0  0
  -47.3800   19.5340  -31.8930 C   0  0  0  0  0  3  0  0  0  0  0  0
  -47.3840   16.5230  -34.0600 O   0  0  0  0  0  0  0  0  0  0  0  0
  -46.4650   16.3090  -33.8850 H   0  0  0  0  0  0  0  0  0  0  0  0
  2  1  1  0
  2  3  1  0
  3  4  2  0
  4 10  1  0
  5  7  2  0
  6  5  1  0
  6  2  2  0
  7  4  1  0
  8 13  1  0
  8 11  1  0
  9 11  2  0
 10 12  1  0
 10  8  2  0
 12  9  1  0
 14  6  1  0
 15 16  2  0
 15 17  1  0
 17 14  1  0
 18 17  1  0
 19 23  2  0
 19 22  1  0
 20 24  1  0
 20 15  1  0
 21 22  1  0
 21 25  1  0
 22 20  1  0
 25 26  1  0
 25 24  1  0
 27 26  1  0
 28 32  1  0
 28 19  1  0
 32 30  1  6
 32 31  1  0
 32 29  1  0
 33 36  1  0
 33 28  1  0
 34 33  1  0
 35 34  2  0
 37 38  1  1
 37 34  1  0
 39 40  1  0
 39 37  1  0
 40 37  1  0
 41  1  1  0
 42 46  1  0
 43 42  2  0
 43 45  1  0
 44 41  1  0
 45 47  2  0
 46 53  1  0
 46 44  2  0
 47 44  1  0
 48 61  1  0
 48 52  1  0
 48 49  1  0
 49 43  1  0
 49 50  1  1
 49 51  1  0
 52 45  1  0
 54 47  1  0
 55 60  1  0
 55 61  1  0
 56 55  1  0
 57 58  1  0
 57 56  1  0
 58 59  1  0
 59 60  1  0
 62 61  2  0
 63 58  1  0
 64 63  1  0
 65 64  2  0
 66 67  2  0
 66 65  1  0
 67 68  1  0
 68 69  1  0
 68 63  2  0
 69 70  1  0
 71 69  1  0
 72 65  1  0
 72 77  1  0
 73 72  2  0
 74 73  1  0
 74 75  2  0
 75 76  1  0
 76 77  2  0
 78 79  1  0
 78 73  1  0
M  ISO  4   1 101  41 101  55 100  61 100
M  END
>  <TORSDO>  (152) 
F 16

>  <SCORE>  (152) 
-14.544

>  <name>  (152) 
151

>  <ligand_id>  (152) 
151

>  <original_smiles>  (152) 
[H]Oc1c([H])c([H])c([H])c([H])c1-c1nnc(N([H])[H])c(N2C([H])([H])C([H])([H])N(C(=O)C3([H])Oc4c(Cl)c(C([H])([H])Oc5c([H])c(-c6sc([H])nc6C([H])([H])[H])c([H])c([H])c5C([H])([H])N([H])C(=O)C5([H])N(C(=O)C([H])(N([H])C(=O)C6(F)C([H])([H])C6([H])[H])C(C([H])([H])[H])(C([H])([H])[H])C([H])([H])[H])C([H])([H])C([H])(O[H])C5([H])[H])c(Cl)c([H])c4C3(C([H])([H])[H])C([H])([H])[H])C([H])([H])C2([H])[H])c1[H]

>  <smiles>  (152) 
[H]Oc1c([H])c([H])c([H])c([H])c1-c1nnc(N([H])[H])c(N2C([H])([H])C([H])([H])N(C(=O)C3([H])Oc4c(Cl)c(C([H])([H])Oc5c([H])c(-c6sc([H])nc6C([H])([H])[H])c([H])c([H])c5C([H])([H])N([H])C(=O)C5([H])N(C(=O)C([H])(N([H])C(=O)C6(F)C([H])([H])C6([H])[H])C(C([H])([H])[H])(C([H])([H])[H])C([H])([H])[H])C([H])([H])C([H])(O[H])C5([H])[H])c(Cl)c([H])c4C3(C([H])([H])[H])C([H])([H])[H])C([H])([H])C2([H])[H])c1[H]

$$$$
152:0:0
     RDKit          3D

 72 79  0  0  1  0  0  0  0  0999 V2000
  -37.3800   13.5630  -23.7600 C   0  0  0  0  0  0  0  0  0  0  0  0
  -36.7050   13.4930  -22.5150 C   0  0  0  0  0  3  0  0  0  0  0  0
  -35.4590   12.8320  -22.3820 C   0  0  0  0  0  0  0  0  0  0  0  0
  -35.5590   12.2760  -24.7590 C   0  0  0  0  0  3  0  0  0  0  0  0
  -36.8160   12.9090  -24.8870 C   0  0  0  0  0  0  0  0  0  0  0  0
  -34.8850   12.2490  -23.5280 C   0  0  0  0  0  3  0  0  0  0  0  0
  -35.2530   12.2890  -19.8640 C   0  0  0  0  0  0  0  0  0  0  0  0
  -33.0820   12.6350  -19.3160 C   0  0  0  0  0  3  0  0  0  0  0  0
  -34.7750   12.7080  -21.0910 C   0  0  0  0  0  0  0  0  0  0  0  0
  -34.2780   12.2530  -18.8640 N   0  0  0  0  0  0  0  0  0  0  0  0
  -33.0660   13.0860  -21.0090 S   0  0  0  0  0  0  0  0  0  0  0  0
  -36.6410   11.8570  -19.5080 C   0  0  0  0  0  1  0  0  0  0  0  0
  -37.5700   12.8160  -26.2150 C   0  0  0  0  0  2  0  0  0  0  0  0
  -36.2010   13.6480  -28.1000 C   0  0  0  0  0  0  0  0  0  0  0  0
  -36.4870   14.8350  -27.9300 O   0  0  0  0  0  0  0  0  0  0  0  0
  -36.7120   12.6500  -27.3750 N   0  0  0  0  0  0  0  0  0  0  0  0
  -36.4350   11.7060  -27.6050 H   0  0  0  0  0  0  0  0  0  0  0  0
  -36.1420   14.4160  -31.1100 C   0  0  0  0  0  0  0  0  0  0  0  0
  -35.1510   13.2320  -29.1400 C   0  0  0  0  0  3  0  0  0  0  0  0
  -33.6850   14.4830  -30.5900 C   0  0  0  0  0  2  0  0  0  0  0  0
  -35.0800   14.1130  -30.3190 N   0  0  0  0  0  0  0  0  0  0  0  0
  -37.2620   13.9350  -30.9070 O   0  0  0  0  0  0  0  0  0  0  0  0
  -33.7570   13.2840  -28.4950 C   0  0  0  0  0  2  0  0  0  0  0  0
  -32.8290   13.6570  -29.6310 C   0  0  0  0  0  3  0  0  0  0  0  0
  -32.3890   12.4920  -30.3100 O   0  0  0  0  0  0  0  0  0  0  0  0
  -33.1540   12.0270  -30.6360 H   0  0  0  0  0  0  0  0  0  0  0  0
  -35.9600   15.3500  -32.3360 C   0  0  0  0  0  3  0  0  0  0  0  0
  -35.7410   17.4370  -30.8280 C   0  0  0  0  0  1  0  0  0  0  0  0
  -35.9920   17.7010  -33.2840 C   0  0  0  0  0  1  0  0  0  0  0  0
  -37.9470   16.9640  -31.9020 C   0  0  0  0  0  1  0  0  0  0  0  0
  -36.4190   16.8320  -32.0810 C   0  0  1  0  0  0  0  0  0  0  0  0
  -36.7180   14.7570  -33.4510 N   0  0  0  0  0  0  0  0  0  0  0  0
  -36.2090   14.2320  -34.5740 C   0  0  0  0  0  0  0  0  0  0  0  0
  -35.0010   14.2630  -34.8250 O   0  0  0  0  0  0  0  0  0  0  0  0
  -37.7120   14.6330  -33.3070 H   0  0  0  0  0  0  0  0  0  0  0  0
  -37.2060   13.6000  -35.5080 C   0  0  1  0  0  0  0  0  0  0  0  0
  -38.4720   13.4500  -34.9610 F   0  0  0  0  0  0  0  0  0  0  0  0
  -37.1320   13.9000  -36.9870 C   0  0  0  0  0  2  0  0  0  0  0  0
  -36.7530   12.5280  -36.4760 C   0  0  0  0  0  2  0  0  0  0  0  0
  -38.5970   14.2150  -23.8280 O   0  0  0  0  0  0  0  0  0  0  0  0
  -37.8990   16.4610  -24.5500 C   0  0  0  0  0  3  0  0  0  0  0  0
  -39.7420   15.3360  -25.6180 C   0  0  0  0  0  3  0  0  0  0  0  0
  -38.0260   17.5370  -25.4660 C   0  0  0  0  0  0  0  0  0  0  0  0
  -39.8290   16.3510  -26.5970 C   0  0  0  0  0  0  0  0  0  0  0  0
  -38.9890   17.5100  -26.5210 C   0  0  0  0  0  0  0  0  0  0  0  0
  -38.7400   15.3350  -24.6330 C   0  0  0  0  0  0  0  0  0  0  0  0
  -37.0590   18.7020  -25.3220 C   0  0  0  0  0  1  0  0  0  0  0  0
  -40.8030   16.0660  -27.7250 C   0  0  0  0  0  1  0  0  0  0  0  0
  -38.9630   18.6820  -27.5550 C   0  0  0  0  0  2  0  0  0  0  0  0
  -40.0940   18.8800  -28.4720 N   0  0  0  0  0  0  0  0  0  0  0  0
  -39.7760   19.4230  -29.8050 C   0  0  0  0  0  2  0  0  0  0  0  0
  -41.0230   19.4440  -30.7470 C   0  0  0  0  0  2  0  0  0  0  0  0
  -42.1400   18.6810  -30.1890 N   0  0  0  0  0  0  0  0  0  0  0  0
  -42.5240   19.0090  -28.8130 C   0  0  0  0  0  2  0  0  0  0  0  0
  -41.3170   19.4960  -27.9540 C   0  0  0  0  0  2  0  0  0  0  0  0
  -43.0660   18.0580  -31.0540 C   0  0  0  0  0  0  0  0  0  0  0  0
  -44.3720   18.5580  -31.2410 C   0  0  0  0  0  3  0  0  0  0  0  0
  -45.2590   17.8740  -32.1160 C   0  0  0  0  0  0  0  0  0  0  0  0
  -44.8350   16.7440  -32.7530 N   0  0  0  0  0  0  0  0  0  0  0  0
  -43.6100   16.2420  -32.5700 N   0  0  0  0  0  0  0  0  0  0  0  0
  -42.7430   16.8720  -31.7520 C   0  0  0  0  0  0  0  0  0  0  0  0
  -41.5090   16.2680  -31.5810 N   0  0  0  0  0  0  0  0  0  0  0  0
  -41.0180   16.6330  -30.7740 H   0  0  0  0  0  0  0  0  0  0  0  0
  -41.4810   15.2650  -31.6810 H   0  0  0  0  0  0  0  0  0  0  0  0
  -46.6690   18.3200  -32.3880 C   0  0  0  0  0  0  0  0  0  0  0  0
  -47.5980   17.6160  -33.2240 C   0  0  0  0  0  0  0  0  0  0  0  0
  -48.9120   18.0870  -33.4150 C   0  0  0  0  0  3  0  0  0  0  0  0
  -49.3500   19.2640  -32.7920 C   0  0  0  0  0  3  0  0  0  0  0  0
  -48.4640   19.9800  -31.9770 C   0  0  0  0  0  3  0  0  0  0  0  0
  -47.1510   19.5140  -31.7840 C   0  0  0  0  0  3  0  0  0  0  0  0
  -47.2840   16.4600  -33.8810 O   0  0  0  0  0  0  0  0  0  0  0  0
  -46.3720   16.2180  -33.7140 H   0  0  0  0  0  0  0  0  0  0  0  0
  1  2  1  0
  2  3  2  0
  3  9  1  0
  4  6  2  0
  5  4  1  0
  5  1  2  0
  6  3  1  0
  7 12  1  0
  7 10  1  0
  8 10  2  0
  9 11  1  0
  9  7  2  0
 11  8  1  0
 13  5  1  0
 14 15  2  0
 14 16  1  0
 16 13  1  0
 17 16  1  0
 18 22  2  0
 18 21  1  0
 19 23  1  0
 19 14  1  0
 20 21  1  0
 20 24  1  0
 21 19  1  0
 24 25  1  0
 24 23  1  0
 26 25  1  0
 27 31  1  0
 27 18  1  0
 31 29  1  6
 31 30  1  0
 31 28  1  0
 32 35  1  0
 32 27  1  0
 33 32  1  0
 34 33  2  0
 36 37  1  1
 36 33  1  0
 38 39  1  0
 38 36  1  0
 39 36  1  0
 40  1  1  0
 42 46  2  0
 43 47  1  0
 43 41  2  0
 44 45  2  0
 44 42  1  0
 45 43  1  0
 46 41  1  0
 46 40  1  0
 48 44  1  0
 49 45  1  0
 50 55  1  0
 50 49  1  0
 51 50  1  0
 52 53  1  0
 52 51  1  0
 53 54  1  0
 54 55  1  0
 56 53  1  0
 57 56  1  0
 58 57  2  0
 59 60  2  0
 59 58  1  0
 60 61  1  0
 61 62  1  0
 61 56  2  0
 62 63  1  0
 64 62  1  0
 65 58  1  0
 65 70  1  0
 66 65  2  0
 67 66  1  0
 67 68  2  0
 68 69  1  0
 69 70  2  0
 71 72  1  0
 71 66  1  0
M  ISO  4  40 101  46 101  49 100  50 100
M  END
>  <TORSDO>  (153) 
F 16

>  <SCORE>  (153) 
-14.605

>  <name>  (153) 
152

>  <ligand_id>  (153) 
152

>  <original_smiles>  (153) 
[H]Oc1c([H])c([H])c([H])c([H])c1-c1nnc(N([H])[H])c(N2C([H])([H])C([H])([H])N(C([H])([H])c3c(C([H])([H])[H])c([H])c(Oc4c([H])c(-c5sc([H])nc5C([H])([H])[H])c([H])c([H])c4C([H])([H])N([H])C(=O)C4([H])N(C(=O)C([H])(N([H])C(=O)C5(F)C([H])([H])C5([H])[H])C(C([H])([H])[H])(C([H])([H])[H])C([H])([H])[H])C([H])([H])C([H])(O[H])C4([H])[H])c([H])c3C([H])([H])[H])C([H])([H])C2([H])[H])c1[H]

>  <smiles>  (153) 
[H]Oc1c([H])c([H])c([H])c([H])c1-c1nnc(N([H])[H])c(N2C([H])([H])C([H])([H])N(C([H])([H])c3c(C([H])([H])[H])c([H])c(Oc4c([H])c(-c5sc([H])nc5C([H])([H])[H])c([H])c([H])c4C([H])([H])N([H])C(=O)C4([H])N(C(=O)C([H])(N([H])C(=O)C5(F)C([H])([H])C5([H])[H])C(C([H])([H])[H])(C([H])([H])[H])C([H])([H])[H])C([H])([H])C([H])(O[H])C4([H])[H])c([H])c3C([H])([H])[H])C([H])([H])C2([H])[H])c1[H]

$$$$
153:0:0
     RDKit          3D

 77 85  0  0  1  0  0  0  0  0999 V2000
  -37.4560   13.4500  -23.7030 C   0  0  0  0  0  0  0  0  0  0  0  0
  -36.7380   13.3720  -22.4900 C   0  0  0  0  0  3  0  0  0  0  0  0
  -35.4600   12.7880  -22.4150 C   0  0  0  0  0  0  0  0  0  0  0  0
  -35.5760   12.3290  -24.8080 C   0  0  0  0  0  3  0  0  0  0  0  0
  -36.8630   12.9210  -24.8790 C   0  0  0  0  0  0  0  0  0  0  0  0
  -34.8830   12.2680  -23.5900 C   0  0  0  0  0  3  0  0  0  0  0  0
  -35.2600   12.2430  -19.9080 C   0  0  0  0  0  0  0  0  0  0  0  0
  -33.0950   12.6210  -19.3490 C   0  0  0  0  0  3  0  0  0  0  0  0
  -34.7750   12.6730  -21.1280 C   0  0  0  0  0  0  0  0  0  0  0  0
  -34.2880   12.2160  -18.9060 N   0  0  0  0  0  0  0  0  0  0  0  0
  -33.0800   13.1000  -21.0340 S   0  0  0  0  0  0  0  0  0  0  0  0
  -36.6430   11.7820  -19.5530 C   0  0  0  0  0  1  0  0  0  0  0  0
  -37.6280   12.9480  -26.2060 C   0  0  0  0  0  2  0  0  0  0  0  0
  -36.2240   13.6850  -28.1230 C   0  0  0  0  0  0  0  0  0  0  0  0
  -36.4820   14.8800  -27.9700 O   0  0  0  0  0  0  0  0  0  0  0  0
  -36.7830   12.7230  -27.3800 N   0  0  0  0  0  0  0  0  0  0  0  0
  -36.5380   11.7620  -27.5770 H   0  0  0  0  0  0  0  0  0  0  0  0
  -36.1440   14.4180  -31.1490 C   0  0  0  0  0  0  0  0  0  0  0  0
  -35.1740   13.2390  -29.1600 C   0  0  0  0  0  3  0  0  0  0  0  0
  -33.6900   14.4660  -30.6260 C   0  0  0  0  0  2  0  0  0  0  0  0
  -35.0880   14.1110  -30.3500 N   0  0  0  0  0  0  0  0  0  0  0  0
  -37.2690   13.9500  -30.9440 O   0  0  0  0  0  0  0  0  0  0  0  0
  -33.7750   13.2770  -28.5190 C   0  0  0  0  0  2  0  0  0  0  0  0
  -32.8420   13.6490  -29.6540 C   0  0  0  0  0  3  0  0  0  0  0  0
  -32.3970   12.4840  -30.3290 O   0  0  0  0  0  0  0  0  0  0  0  0
  -33.1600   12.0220  -30.6620 H   0  0  0  0  0  0  0  0  0  0  0  0
  -35.9550   15.3430  -32.3820 C   0  0  0  0  0  3  0  0  0  0  0  0
  -35.7290   17.4310  -30.8780 C   0  0  0  0  0  1  0  0  0  0  0  0
  -35.9720   17.6930  -33.3340 C   0  0  0  0  0  1  0  0  0  0  0  0
  -37.9400   16.9730  -31.9680 C   0  0  0  0  0  1  0  0  0  0  0  0
  -36.4090   16.8280  -32.1320 C   0  0  1  0  0  0  0  0  0  0  0  0
  -36.7140   14.7500  -33.4950 N   0  0  0  0  0  0  0  0  0  0  0  0
  -36.2080   14.2220  -34.6180 C   0  0  0  0  0  0  0  0  0  0  0  0
  -35.0000   14.2470  -34.8700 O   0  0  0  0  0  0  0  0  0  0  0  0
  -37.7070   14.6320  -33.3490 H   0  0  0  0  0  0  0  0  0  0  0  0
  -37.2080   13.5910  -35.5510 C   0  0  1  0  0  0  0  0  0  0  0  0
  -38.4720   13.4490  -35.0000 F   0  0  0  0  0  0  0  0  0  0  0  0
  -37.1340   13.8800  -37.0330 C   0  0  0  0  0  2  0  0  0  0  0  0
  -36.7610   12.5110  -36.5120 C   0  0  0  0  0  2  0  0  0  0  0  0
  -38.7180   14.0110  -23.7890 O   0  0  0  0  0  0  0  0  0  0  0  0
  -38.7450   15.6440  -21.8030 C   0  0  0  0  0  2  0  0  0  0  0  0
  -39.7320   16.8110  -21.7630 C   0  0  0  0  0  2  0  0  0  0  0  0
  -39.4250   14.5230  -22.6320 C   0  0  0  0  0  3  0  0  0  0  0  0
  -40.7300   15.2060  -23.1280 C   0  0  0  0  0  3  0  0  0  0  0  0
  -41.9550   14.6970  -22.3450 C   0  0  0  0  0  1  0  0  0  0  0  0
  -40.5570   16.6540  -22.9440 N   0  0  0  0  0  0  0  0  0  0  0  0
  -38.7010   17.5810  -26.0610 C   0  0  0  0  0  3  0  0  0  0  0  0
  -40.0400   19.4750  -25.3220 C   0  0  0  0  0  3  0  0  0  0  0  0
  -39.0980   16.8720  -24.9250 C   0  0  0  0  0  3  0  0  0  0  0  0
  -40.4700   18.7340  -24.1950 C   0  0  0  0  0  3  0  0  0  0  0  0
  -39.2420   18.8430  -26.3100 C   0  0  0  0  0  0  0  0  0  0  0  0
  -40.0500   17.3990  -24.0230 C   0  0  0  0  0  0  0  0  0  0  0  0
  -40.1600   19.3650  -28.4950 N   0  0  0  0  0  0  0  0  0  0  0  0
  -39.9750   19.5770  -29.9420 C   0  0  0  0  0  2  0  0  0  0  0  0
  -41.2840   19.6000  -30.7600 C   0  0  0  0  0  2  0  0  0  0  0  0
  -42.2370   18.6250  -30.2480 N   0  0  0  0  0  0  0  0  0  0  0  0
  -42.6500   18.8020  -28.8740 C   0  0  0  0  0  2  0  0  0  0  0  0
  -41.5430   19.3640  -27.9650 C   0  0  0  0  0  2  0  0  0  0  0  0
  -39.0620   19.3750  -27.6970 C   0  0  0  0  0  0  0  0  0  0  0  0
  -37.9130   19.5860  -28.1040 O   0  0  0  0  0  0  0  0  0  0  0  0
  -43.1780   18.0560  -31.1380 C   0  0  0  0  0  0  0  0  0  0  0  0
  -44.4920   18.5380  -31.2990 C   0  0  0  0  0  3  0  0  0  0  0  0
  -45.3680   17.8680  -32.2010 C   0  0  0  0  0  0  0  0  0  0  0  0
  -44.9270   16.7700  -32.8750 N   0  0  0  0  0  0  0  0  0  0  0  0
  -43.6990   16.2780  -32.7050 N   0  0  0  0  0  0  0  0  0  0  0  0
  -42.8410   16.8970  -31.8670 C   0  0  0  0  0  0  0  0  0  0  0  0
  -41.6070   16.3040  -31.6950 N   0  0  0  0  0  0  0  0  0  0  0  0
  -41.1740   16.6190  -30.8350 H   0  0  0  0  0  0  0  0  0  0  0  0
  -41.5630   15.3090  -31.8480 H   0  0  0  0  0  0  0  0  0  0  0  0
  -46.7830   18.2940  -32.4660 C   0  0  0  0  0  0  0  0  0  0  0  0
  -47.7020   17.5990  -33.3220 C   0  0  0  0  0  0  0  0  0  0  0  0
  -49.0200   18.0620  -33.5030 C   0  0  0  0  0  3  0  0  0  0  0  0
  -49.4720   19.2210  -32.8540 C   0  0  0  0  0  3  0  0  0  0  0  0
  -48.5930   19.9250  -32.0180 C   0  0  0  0  0  3  0  0  0  0  0  0
  -47.2790   19.4660  -31.8350 C   0  0  0  0  0  3  0  0  0  0  0  0
  -47.3760   16.4620  -34.0080 O   0  0  0  0  0  0  0  0  0  0  0  0
  -46.4630   16.2160  -33.8510 H   0  0  0  0  0  0  0  0  0  0  0  0
  1  2  1  0
  2  3  2  0
  3  9  1  0
  4  6  2  0
  5  4  1  0
  5  1  2  0
  6  3  1  0
  7 12  1  0
  7 10  1  0
  8 10  2  0
  9 11  1  0
  9  7  2  0
 11  8  1  0
 13  5  1  0
 14 15  2  0
 14 16  1  0
 16 13  1  0
 17 16  1  0
 18 22  2  0
 18 21  1  0
 19 23  1  0
 19 14  1  0
 20 21  1  0
 20 24  1  0
 21 19  1  0
 24 25  1  0
 24 23  1  0
 26 25  1  0
 27 31  1  0
 27 18  1  0
 31 29  1  6
 31 30  1  0
 31 28  1  0
 32 35  1  0
 32 27  1  0
 33 32  1  0
 34 33  2  0
 36 37  1  1
 36 33  1  0
 38 39  1  0
 38 36  1  0
 39 36  1  0
 40  1  1  0
 41 42  1  0
 43 40  1  0
 43 41  1  0
 44 46  1  0
 44 43  1  0
 44 45  1  0
 46 42  1  0
 47 49  1  0
 48 50  2  0
 49 52  2  0
 50 52  1  0
 51 47  2  0
 51 48  1  0
 52 46  1  0
 53 58  1  0
 53 59  1  0
 54 53  1  0
 55 56  1  0
 55 54  1  0
 56 57  1  0
 57 58  1  0
 59 51  1  0
 60 59  2  0
 61 56  1  0
 62 61  1  0
 63 62  2  0
 64 65  2  0
 64 63  1  0
 65 66  1  0
 66 67  1  0
 66 61  2  0
 67 68  1  0
 69 67  1  0
 70 63  1  0
 70 75  1  0
 71 70  2  0
 72 71  1  0
 72 73  2  0
 73 74  1  0
 74 75  2  0
 76 77  1  0
 76 71  1  0
M  ISO  4  40 101  43 101  53 100  59 100
M  END
>  <TORSDO>  (154) 
F 16

>  <SCORE>  (154) 
-14.479

>  <name>  (154) 
153

>  <ligand_id>  (154) 
153

>  <original_smiles>  (154) 
[H]Oc1c([H])c([H])c([H])c([H])c1-c1nnc(N([H])[H])c(N2C([H])([H])C([H])([H])N(C(=O)c3c([H])c([H])c(N4C([H])([H])C([H])([H])C([H])(Oc5c([H])c(-c6sc([H])nc6C([H])([H])[H])c([H])c([H])c5C([H])([H])N([H])C(=O)C5([H])N(C(=O)C([H])(N([H])C(=O)C6(F)C([H])([H])C6([H])[H])C(C([H])([H])[H])(C([H])([H])[H])C([H])([H])[H])C([H])([H])C([H])(O[H])C5([H])[H])C4([H])C([H])([H])[H])c([H])c3[H])C([H])([H])C2([H])[H])c1[H]

>  <smiles>  (154) 
[H]Oc1c([H])c([H])c([H])c([H])c1-c1nnc(N([H])[H])c(N2C([H])([H])C([H])([H])N(C(=O)c3c([H])c([H])c(N4C([H])([H])C([H])([H])C([H])(Oc5c([H])c(-c6sc([H])nc6C([H])([H])[H])c([H])c([H])c5C([H])([H])N([H])C(=O)C5([H])N(C(=O)C([H])(N([H])C(=O)C6(F)C([H])([H])C6([H])[H])C(C([H])([H])[H])(C([H])([H])[H])C([H])([H])[H])C([H])([H])C([H])(O[H])C5([H])[H])C4([H])C([H])([H])[H])c([H])c3[H])C([H])([H])C2([H])[H])c1[H]

$$$$
154:0:0
     RDKit          3D

 75 82  0  0  1  0  0  0  0  0999 V2000
  -37.4070   13.4420  -23.7150 C   0  0  0  0  0  0  0  0  0  0  0  0
  -36.7040   13.4060  -22.4900 C   0  0  0  0  0  3  0  0  0  0  0  0
  -35.3940   12.8800  -22.4160 C   0  0  0  0  0  0  0  0  0  0  0  0
  -35.4620   12.4910  -24.8330 C   0  0  0  0  0  3  0  0  0  0  0  0
  -36.7810   12.9920  -24.8990 C   0  0  0  0  0  0  0  0  0  0  0  0
  -34.7830   12.4290  -23.6040 C   0  0  0  0  0  3  0  0  0  0  0  0
  -35.1420   12.1860  -19.9420 C   0  0  0  0  0  0  0  0  0  0  0  0
  -33.0040   12.6660  -19.3670 C   0  0  0  0  0  3  0  0  0  0  0  0
  -34.6990   12.7260  -21.1360 C   0  0  0  0  0  0  0  0  0  0  0  0
  -34.1640   12.1610  -18.9460 N   0  0  0  0  0  0  0  0  0  0  0  0
  -33.0280   13.2340  -21.0250 S   0  0  0  0  0  0  0  0  0  0  0  0
  -36.4890   11.6200  -19.6180 C   0  0  0  0  0  1  0  0  0  0  0  0
  -37.5560   13.0090  -26.2170 C   0  0  0  0  0  2  0  0  0  0  0  0
  -36.1930   13.7520  -28.1600 C   0  0  0  0  0  0  0  0  0  0  0  0
  -36.4770   14.9480  -28.0400 O   0  0  0  0  0  0  0  0  0  0  0  0
  -36.7170   12.7910  -27.3900 N   0  0  0  0  0  0  0  0  0  0  0  0
  -36.4480   11.8360  -27.5750 H   0  0  0  0  0  0  0  0  0  0  0  0
  -36.1050   14.4350  -31.1910 C   0  0  0  0  0  0  0  0  0  0  0  0
  -35.1460   13.2870  -29.1880 C   0  0  0  0  0  3  0  0  0  0  0  0
  -33.6470   14.4750  -30.6660 C   0  0  0  0  0  2  0  0  0  0  0  0
  -35.0490   14.1370  -30.3890 N   0  0  0  0  0  0  0  0  0  0  0  0
  -37.2330   13.9760  -30.9760 O   0  0  0  0  0  0  0  0  0  0  0  0
  -33.7490   13.3190  -28.5470 C   0  0  0  0  0  2  0  0  0  0  0  0
  -32.8090   13.6570  -29.6880 C   0  0  0  0  0  3  0  0  0  0  0  0
  -32.3720   12.4770  -30.3440 O   0  0  0  0  0  0  0  0  0  0  0  0
  -33.1350   12.0020  -30.6590 H   0  0  0  0  0  0  0  0  0  0  0  0
  -35.9090   15.3370  -32.4360 C   0  0  0  0  0  3  0  0  0  0  0  0
  -35.6870   17.4380  -30.9580 C   0  0  0  0  0  1  0  0  0  0  0  0
  -35.8880   17.6770  -33.4170 C   0  0  0  0  0  1  0  0  0  0  0  0
  -37.8870   16.9780  -32.0840 C   0  0  0  0  0  1  0  0  0  0  0  0
  -36.3550   16.8280  -32.2140 C   0  0  1  0  0  0  0  0  0  0  0  0
  -36.6720   14.7320  -33.5370 N   0  0  0  0  0  0  0  0  0  0  0  0
  -36.1670   14.1980  -34.6580 C   0  0  0  0  0  0  0  0  0  0  0  0
  -34.9610   14.2340  -34.9160 O   0  0  0  0  0  0  0  0  0  0  0  0
  -37.6630   14.5950  -33.3820 H   0  0  0  0  0  0  0  0  0  0  0  0
  -37.1670   13.5500  -35.5770 C   0  0  1  0  0  0  0  0  0  0  0  0
  -38.4210   13.3790  -35.0120 F   0  0  0  0  0  0  0  0  0  0  0  0
  -37.1170   13.8590  -37.0550 C   0  0  0  0  0  2  0  0  0  0  0  0
  -36.7140   12.4870  -36.5560 C   0  0  0  0  0  2  0  0  0  0  0  0
  -38.7480   13.7230  -23.7860 O   0  0  0  0  0  0  0  0  0  0  0  0
  -39.2600   14.9070  -23.2140 C   0  0  0  0  0  2  0  0  0  0  0  0
  -40.3950   16.4060  -26.5120 C   0  0  0  0  0  3  0  0  0  0  0  0
  -40.3900   15.6500  -25.3250 C   0  0  0  0  0  3  0  0  0  0  0  0
  -38.4280   16.8700  -24.5380 C   0  0  0  0  0  3  0  0  0  0  0  0
  -39.3950   17.3750  -26.7270 C   0  0  0  0  0  0  0  0  0  0  0  0
  -39.4020   15.8770  -24.3490 C   0  0  0  0  0  0  0  0  0  0  0  0
  -38.3930   17.6020  -25.7380 C   0  0  0  0  0  0  0  0  0  0  0  0
  -37.2120   18.5480  -25.9200 C   0  0  0  0  0  1  0  0  0  0  0  0
  -40.1700   18.9590  -28.4990 N   0  0  0  0  0  0  0  0  0  0  0  0
  -39.9820   19.5880  -29.8290 C   0  0  0  0  0  2  0  0  0  0  0  0
  -41.2560   19.5020  -30.7070 C   0  0  0  0  0  2  0  0  0  0  0  0
  -42.2720   18.6270  -30.1200 N   0  0  0  0  0  0  0  0  0  0  0  0
  -42.6550   18.8730  -28.7250 C   0  0  0  0  0  2  0  0  0  0  0  0
  -41.4540   19.3440  -27.8550 C   0  0  0  0  0  2  0  0  0  0  0  0
  -39.3050   18.0220  -28.0290 C   0  0  0  0  0  3  0  0  0  0  0  0
  -38.2640   17.6240  -28.7580 N   0  0  0  0  0  0  0  0  0  0  0  0
  -37.7360   16.8310  -28.4050 H   0  0  0  0  0  0  0  0  0  0  0  0
  -38.0280   18.0190  -29.6440 H   0  0  0  0  0  0  0  0  0  0  0  0
  -43.1840   18.0240  -31.0140 C   0  0  0  0  0  0  0  0  0  0  0  0
  -44.4880   18.5190  -31.2250 C   0  0  0  0  0  3  0  0  0  0  0  0
  -45.3380   17.8540  -32.1510 C   0  0  0  0  0  0  0  0  0  0  0  0
  -44.8810   16.7500  -32.8090 N   0  0  0  0  0  0  0  0  0  0  0  0
  -43.6550   16.2540  -32.6070 N   0  0  0  0  0  0  0  0  0  0  0  0
  -42.8220   16.8710  -31.7410 C   0  0  0  0  0  0  0  0  0  0  0  0
  -41.5760   16.2990  -31.5530 N   0  0  0  0  0  0  0  0  0  0  0  0
  -41.1350   16.6710  -30.7190 H   0  0  0  0  0  0  0  0  0  0  0  0
  -41.5010   15.3000  -31.6620 H   0  0  0  0  0  0  0  0  0  0  0  0
  -46.7440   18.2940  -32.4600 C   0  0  0  0  0  0  0  0  0  0  0  0
  -47.6420   17.5930  -33.3290 C   0  0  0  0  0  0  0  0  0  0  0  0
  -48.9540   18.0570  -33.5550 C   0  0  0  0  0  3  0  0  0  0  0  0
  -49.4190   19.2260  -32.9340 C   0  0  0  0  0  3  0  0  0  0  0  0
  -48.5620   19.9350  -32.0810 C   0  0  0  0  0  3  0  0  0  0  0  0
  -47.2520   19.4720  -31.8540 C   0  0  0  0  0  3  0  0  0  0  0  0
  -47.2950   16.4490  -33.9900 O   0  0  0  0  0  0  0  0  0  0  0  0
  -46.3850   16.2210  -33.7850 H   0  0  0  0  0  0  0  0  0  0  0  0
  1  2  1  0
  2  3  2  0
  3  9  1  0
  4  6  2  0
  5  4  1  0
  5  1  2  0
  6  3  1  0
  7 12  1  0
  7 10  1  0
  8 10  2  0
  9 11  1  0
  9  7  2  0
 11  8  1  0
 13  5  1  0
 14 15  2  0
 14 16  1  0
 16 13  1  0
 17 16  1  0
 18 22  2  0
 18 21  1  0
 19 23  1  0
 19 14  1  0
 20 21  1  0
 20 24  1  0
 21 19  1  0
 24 25  1  0
 24 23  1  0
 26 25  1  0
 27 31  1  0
 27 18  1  0
 31 29  1  6
 31 30  1  0
 31 28  1  0
 32 35  1  0
 32 27  1  0
 33 32  1  0
 34 33  2  0
 36 37  1  1
 36 33  1  0
 38 39  1  0
 38 36  1  0
 39 36  1  0
 40  1  1  0
 40 41  1  0
 42 43  1  0
 43 46  2  0
 44 46  1  0
 45 42  2  0
 45 47  1  0
 46 41  1  0
 47 44  2  0
 48 47  1  0
 49 55  1  0
 49 54  1  0
 50 49  1  0
 51 52  1  0
 51 50  1  0
 52 53  1  0
 53 54  1  0
 55 56  1  0
 55 45  1  0
 56 57  1  0
 58 56  1  0
 59 52  1  0
 60 59  1  0
 61 60  2  0
 62 63  2  0
 62 61  1  0
 63 64  1  0
 64 65  1  0
 64 59  2  0
 65 66  1  0
 67 65  1  0
 68 61  1  0
 68 73  1  0
 69 68  2  0
 70 69  1  0
 70 71  2  0
 71 72  1  0
 72 73  2  0
 74 75  1  0
 74 69  1  0
M  ISO  4  40 101  41 101  49 100  55 100
M  END
>  <TORSDO>  (155) 
F 16

>  <SCORE>  (155) 
-14.627

>  <name>  (155) 
154

>  <ligand_id>  (155) 
154

>  <original_smiles>  (155) 
[H]Oc1c([H])c([H])c([H])c([H])c1-c1nnc(N([H])[H])c(N2C([H])([H])C([H])([H])N(C(c3c([H])c([H])c(C([H])([H])Oc4c([H])c(-c5sc([H])nc5C([H])([H])[H])c([H])c([H])c4C([H])([H])N([H])C(=O)C4([H])N(C(=O)C([H])(N([H])C(=O)C5(F)C([H])([H])C5([H])[H])C(C([H])([H])[H])(C([H])([H])[H])C([H])([H])[H])C([H])([H])C([H])(O[H])C4([H])[H])c([H])c3C([H])([H])[H])=[N+]([H])[H])C([H])([H])C2([H])[H])c1[H]

>  <smiles>  (155) 
[H]Oc1c([H])c([H])c([H])c([H])c1-c1nnc(N([H])[H])c(N2C([H])([H])C([H])([H])N(C(c3c([H])c([H])c(C([H])([H])Oc4c([H])c(-c5sc([H])nc5C([H])([H])[H])c([H])c([H])c4C([H])([H])N([H])C(=O)C4([H])N(C(=O)C([H])(N([H])C(=O)C5(F)C([H])([H])C5([H])[H])C(C([H])([H])[H])(C([H])([H])[H])C([H])([H])[H])C([H])([H])C([H])(O[H])C4([H])[H])c([H])c3C([H])([H])[H])=[N+]([H])[H])C([H])([H])C2([H])[H])c1[H]

$$$$
155:0:0
     RDKit          3D

 82 90  0  0  1  0  0  0  0  0999 V2000
  -39.4850   14.2680  -21.3840 C   0  0  0  0  0  2  0  0  0  0  0  0
  -40.7280   15.0900  -23.4170 C   0  0  0  0  0  2  0  0  0  0  0  0
  -38.9620   15.6920  -21.0690 C   0  0  0  0  0  2  0  0  0  0  0  0
  -40.9650   16.2730  -22.4410 C   0  0  0  0  0  2  0  0  0  0  0  0
  -39.7190   14.0290  -22.8990 C   0  0  0  0  0  3  0  0  0  0  0  0
  -39.7150   16.7130  -21.8060 N   0  0  0  0  0  0  0  0  0  0  0  0
  -37.9310   17.1950  -23.4800 C   0  0  0  0  0  3  0  0  0  0  0  0
  -38.9820   19.6700  -23.6330 C   0  0  0  0  0  0  0  0  0  0  0  0
  -38.9970   17.5950  -22.6320 C   0  0  0  0  0  0  0  0  0  0  0  0
  -38.0490   19.2100  -24.6020 C   0  0  0  0  0  0  0  0  0  0  0  0
  -38.1540   19.5560  -26.9590 C   0  0  0  0  0  0  0  0  0  0  0  0
  -39.5470   21.0810  -23.6360 C   0  0  0  0  0  1  0  0  0  0  0  0
  -37.4710   17.9890  -24.4720 N   0  0  0  0  0  0  0  0  0  0  0  0
  -39.4760   18.8580  -22.6720 N   0  0  0  0  0  0  0  0  0  0  0  0
  -37.8540   20.0170  -25.7380 N   0  0  0  0  0  0  0  0  0  0  0  0
  -37.5500   18.6620  -27.5590 O   0  0  0  0  0  0  0  0  0  0  0  0
  -38.2680   20.9330  -25.6320 H   0  0  0  0  0  0  0  0  0  0  0  0
  -40.2500   19.5110  -28.2760 N   0  0  0  0  0  0  0  0  0  0  0  0
  -39.9700   19.4090  -29.7210 C   0  0  0  0  0  2  0  0  0  0  0  0
  -41.2290   19.5430  -30.6090 C   0  0  0  0  0  2  0  0  0  0  0  0
  -42.2780   18.6640  -30.1130 N   0  0  0  0  0  0  0  0  0  0  0  0
  -42.6210   18.7080  -28.6980 C   0  0  0  0  0  2  0  0  0  0  0  0
  -41.6690   19.6110  -27.8890 C   0  0  0  0  0  2  0  0  0  0  0  0
  -39.4000   20.2710  -27.5490 C   0  0  0  0  0  0  0  0  0  0  0  0
  -39.6680   21.4120  -27.1460 O   0  0  0  0  0  0  0  0  0  0  0  0
  -43.1550   18.0280  -31.0140 C   0  0  0  0  0  0  0  0  0  0  0  0
  -44.4650   18.4970  -31.2380 C   0  0  0  0  0  3  0  0  0  0  0  0
  -45.2960   17.8070  -32.1570 C   0  0  0  0  0  0  0  0  0  0  0  0
  -44.8120   16.7090  -32.8080 N   0  0  0  0  0  0  0  0  0  0  0  0
  -43.5780   16.2410  -32.5940 N   0  0  0  0  0  0  0  0  0  0  0  0
  -42.7680   16.8670  -31.7180 C   0  0  0  0  0  0  0  0  0  0  0  0
  -41.5240   16.2940  -31.5160 N   0  0  0  0  0  0  0  0  0  0  0  0
  -40.8650   16.8800  -31.0230 H   0  0  0  0  0  0  0  0  0  0  0  0
  -41.1450   15.7050  -32.2430 H   0  0  0  0  0  0  0  0  0  0  0  0
  -46.7130   18.2060  -32.4690 C   0  0  0  0  0  0  0  0  0  0  0  0
  -47.5870   17.4800  -33.3400 C   0  0  0  0  0  0  0  0  0  0  0  0
  -48.9100   17.9060  -33.5700 C   0  0  0  0  0  3  0  0  0  0  0  0
  -49.4100   19.0610  -32.9530 C   0  0  0  0  0  3  0  0  0  0  0  0
  -48.5770   19.8000  -32.1030 C   0  0  0  0  0  3  0  0  0  0  0  0
  -47.2550   19.3780  -31.8690 C   0  0  0  0  0  3  0  0  0  0  0  0
  -47.2130   16.3400  -33.9970 O   0  0  0  0  0  0  0  0  0  0  0  0
  -46.2980   16.1290  -33.8060 H   0  0  0  0  0  0  0  0  0  0  0  0
  -38.6150   14.1190  -23.8230 O   0  0  0  0  0  0  0  0  0  0  0  0
  -37.4280   13.4240  -23.6960 C   0  0  0  0  0  0  0  0  0  0  0  0
  -36.7000   13.3410  -22.4860 C   0  0  0  0  0  3  0  0  0  0  0  0
  -35.4480   12.7040  -22.4080 C   0  0  0  0  0  0  0  0  0  0  0  0
  -35.5720   12.2740  -24.8060 C   0  0  0  0  0  3  0  0  0  0  0  0
  -36.8480   12.8790  -24.8720 C   0  0  0  0  0  0  0  0  0  0  0  0
  -34.8810   12.1910  -23.5870 C   0  0  0  0  0  3  0  0  0  0  0  0
  -35.2490   12.1240  -19.9090 C   0  0  0  0  0  0  0  0  0  0  0  0
  -33.0860   12.4900  -19.3400 C   0  0  0  0  0  3  0  0  0  0  0  0
  -34.7620   12.5650  -21.1230 C   0  0  0  0  0  0  0  0  0  0  0  0
  -34.2790   12.0830  -18.9040 N   0  0  0  0  0  0  0  0  0  0  0  0
  -33.0630   12.9680  -21.0270 S   0  0  0  0  0  0  0  0  0  0  0  0
  -36.6350   11.6690  -19.5660 C   0  0  0  0  0  1  0  0  0  0  0  0
  -37.6100   12.9350  -26.1980 C   0  0  0  0  0  2  0  0  0  0  0  0
  -36.2140   13.6860  -28.1060 C   0  0  0  0  0  0  0  0  0  0  0  0
  -36.4680   14.8810  -27.9430 O   0  0  0  0  0  0  0  0  0  0  0  0
  -36.7690   12.7180  -27.3720 N   0  0  0  0  0  0  0  0  0  0  0  0
  -36.5300   11.7610  -27.5910 H   0  0  0  0  0  0  0  0  0  0  0  0
  -36.1470   14.4290  -31.1250 C   0  0  0  0  0  0  0  0  0  0  0  0
  -35.1720   13.2420  -29.1470 C   0  0  0  0  0  3  0  0  0  0  0  0
  -33.6910   14.4770  -30.6060 C   0  0  0  0  0  2  0  0  0  0  0  0
  -35.0890   14.1180  -30.3320 N   0  0  0  0  0  0  0  0  0  0  0  0
  -37.2710   13.9580  -30.9220 O   0  0  0  0  0  0  0  0  0  0  0  0
  -33.7720   13.2800  -28.5100 C   0  0  0  0  0  2  0  0  0  0  0  0
  -32.8410   13.6490  -29.6470 C   0  0  0  0  0  3  0  0  0  0  0  0
  -32.4030   12.4810  -30.3250 O   0  0  0  0  0  0  0  0  0  0  0  0
  -33.1680   12.0130  -30.6470 H   0  0  0  0  0  0  0  0  0  0  0  0
  -35.9590   15.3640  -32.3490 C   0  0  0  0  0  3  0  0  0  0  0  0
  -35.7560   17.4510  -30.8390 C   0  0  0  0  0  1  0  0  0  0  0  0
  -35.9920   17.7210  -33.2940 C   0  0  0  0  0  1  0  0  0  0  0  0
  -37.9520   16.9760  -31.9310 C   0  0  0  0  0  1  0  0  0  0  0  0
  -36.4220   16.8470  -32.0970 C   0  0  1  0  0  0  0  0  0  0  0  0
  -36.7100   14.7710  -33.4680 N   0  0  0  0  0  0  0  0  0  0  0  0
  -36.1940   14.2380  -34.5850 C   0  0  0  0  0  0  0  0  0  0  0  0
  -34.9840   14.2660  -34.8250 O   0  0  0  0  0  0  0  0  0  0  0  0
  -37.7040   14.6410  -33.3280 H   0  0  0  0  0  0  0  0  0  0  0  0
  -37.1860   13.6050  -35.5240 C   0  0  1  0  0  0  0  0  0  0  0  0
  -38.4560   13.4660  -34.9880 F   0  0  0  0  0  0  0  0  0  0  0  0
  -37.0950   13.8940  -37.0030 C   0  0  0  0  0  2  0  0  0  0  0  0
  -36.7300   12.5230  -36.4790 C   0  0  0  0  0  2  0  0  0  0  0  0
  1  3  1  0
  2  5  1  0
  2  4  1  0
  4  6  1  0
  5 43  1  0
  5  1  1  0
  6  3  1  0
  7  9  1  0
  8 14  1  0
  9  6  1  0
 10 13  1  0
 10  8  2  0
 11 15  1  0
 12  8  1  0
 13  7  2  0
 14  9  2  0
 15 17  1  0
 15 10  1  0
 16 11  2  0
 18 23  1  0
 18 24  1  0
 19 18  1  0
 20 21  1  0
 20 19  1  0
 21 22  1  0
 22 23  1  0
 24 25  2  0
 24 11  1  0
 26 21  1  0
 27 26  1  0
 28 27  2  0
 29 30  2  0
 29 28  1  0
 30 31  1  0
 31 32  1  0
 31 26  2  0
 32 33  1  0
 34 32  1  0
 35 28  1  0
 35 40  1  0
 36 35  2  0
 37 36  1  0
 37 38  2  0
 38 39  1  0
 39 40  2  0
 41 42  1  0
 41 36  1  0
 43 44  1  0
 44 45  1  0
 45 46  2  0
 46 52  1  0
 47 49  2  0
 48 47  1  0
 48 44  2  0
 49 46  1  0
 50 55  1  0
 50 53  1  0
 51 53  2  0
 52 54  1  0
 52 50  2  0
 54 51  1  0
 56 48  1  0
 57 58  2  0
 57 59  1  0
 59 56  1  0
 60 59  1  0
 61 65  2  0
 61 64  1  0
 62 66  1  0
 62 57  1  0
 63 64  1  0
 63 67  1  0
 64 62  1  0
 67 68  1  0
 67 66  1  0
 69 68  1  0
 70 74  1  0
 70 61  1  0
 74 72  1  6
 74 73  1  0
 74 71  1  0
 75 78  1  0
 75 70  1  0
 76 75  1  0
 77 76  2  0
 79 80  1  1
 79 76  1  0
 81 82  1  0
 81 79  1  0
 82 79  1  0
M  ISO  4   5 101  18 100  24 100  43 101
M  END
>  <TORSDO>  (156) 
F 16

>  <SCORE>  (156) 
-14.454

>  <name>  (156) 
155

>  <ligand_id>  (156) 
155

>  <original_smiles>  (156) 
[H]Oc1c([H])c([H])c([H])c([H])c1-c1nnc(N([H])[H])c(N2C([H])([H])C([H])([H])N(C(=O)C(=O)N([H])c3nc([H])c(N4C([H])([H])C([H])([H])C([H])(Oc5c([H])c(-c6sc([H])nc6C([H])([H])[H])c([H])c([H])c5C([H])([H])N([H])C(=O)C5([H])N(C(=O)C([H])(N([H])C(=O)C6(F)C([H])([H])C6([H])[H])C(C([H])([H])[H])(C([H])([H])[H])C([H])([H])[H])C([H])([H])C([H])(O[H])C5([H])[H])C([H])([H])C4([H])[H])nc3C([H])([H])[H])C([H])([H])C2([H])[H])c1[H]

>  <smiles>  (156) 
[H]Oc1c([H])c([H])c([H])c([H])c1-c1nnc(N([H])[H])c(N2C([H])([H])C([H])([H])N(C(=O)C(=O)N([H])c3nc([H])c(N4C([H])([H])C([H])([H])C([H])(Oc5c([H])c(-c6sc([H])nc6C([H])([H])[H])c([H])c([H])c5C([H])([H])N([H])C(=O)C5([H])N(C(=O)C([H])(N([H])C(=O)C6(F)C([H])([H])C6([H])[H])C(C([H])([H])[H])(C([H])([H])[H])C([H])([H])[H])C([H])([H])C([H])(O[H])C5([H])[H])C([H])([H])C4([H])[H])nc3C([H])([H])[H])C([H])([H])C2([H])[H])c1[H]

$$$$
156:0:0
     RDKit          3D

 77 85  0  0  1  0  0  0  0  0999 V2000
  -37.5120   13.5780  -23.8030 C   0  0  0  0  0  0  0  0  0  0  0  0
  -36.8410   13.4740  -22.5640 C   0  0  0  0  0  3  0  0  0  0  0  0
  -35.5480   12.9270  -22.4580 C   0  0  0  0  0  0  0  0  0  0  0  0
  -35.5940   12.4980  -24.8600 C   0  0  0  0  0  3  0  0  0  0  0  0
  -36.8930   13.0500  -24.9600 C   0  0  0  0  0  0  0  0  0  0  0  0
  -34.9250   12.4500  -23.6250 C   0  0  0  0  0  3  0  0  0  0  0  0
  -35.3850   12.3830  -19.9430 C   0  0  0  0  0  0  0  0  0  0  0  0
  -33.2340   12.7710  -19.3530 C   0  0  0  0  0  3  0  0  0  0  0  0
  -34.8880   12.8080  -21.1590 C   0  0  0  0  0  0  0  0  0  0  0  0
  -34.4290   12.3640  -18.9250 N   0  0  0  0  0  0  0  0  0  0  0  0
  -33.1930   13.2300  -21.0440 S   0  0  0  0  0  0  0  0  0  0  0  0
  -36.7740   11.9300  -19.6100 C   0  0  0  0  0  1  0  0  0  0  0  0
  -37.6460   13.0260  -26.2910 C   0  0  0  0  0  2  0  0  0  0  0  0
  -36.2180   13.7450  -28.1870 C   0  0  0  0  0  0  0  0  0  0  0  0
  -36.4660   14.9420  -28.0410 O   0  0  0  0  0  0  0  0  0  0  0  0
  -36.7900   12.7900  -27.4490 N   0  0  0  0  0  0  0  0  0  0  0  0
  -36.5560   11.8260  -27.6530 H   0  0  0  0  0  0  0  0  0  0  0  0
  -36.0890   14.4430  -31.2170 C   0  0  0  0  0  0  0  0  0  0  0  0
  -35.1580   13.2820  -29.2020 C   0  0  0  0  0  3  0  0  0  0  0  0
  -33.6440   14.4830  -30.6540 C   0  0  0  0  0  2  0  0  0  0  0  0
  -35.0480   14.1390  -30.3990 N   0  0  0  0  0  0  0  0  0  0  0  0
  -37.2210   13.9810  -31.0260 O   0  0  0  0  0  0  0  0  0  0  0  0
  -33.7710   13.3230  -28.5390 C   0  0  0  0  0  2  0  0  0  0  0  0
  -32.8170   13.6660  -29.6650 C   0  0  0  0  0  3  0  0  0  0  0  0
  -32.3730   12.4860  -30.3170 O   0  0  0  0  0  0  0  0  0  0  0  0
  -33.1340   12.0160  -30.6420 H   0  0  0  0  0  0  0  0  0  0  0  0
  -35.8720   15.3520  -32.4560 C   0  0  0  0  0  3  0  0  0  0  0  0
  -36.6260   14.7570  -33.5730 N   0  0  0  0  0  0  0  0  0  0  0  0
  -36.1130   14.1980  -34.6780 C   0  0  0  0  0  0  0  0  0  0  0  0
  -34.9010   14.1960  -34.9090 O   0  0  0  0  0  0  0  0  0  0  0  0
  -37.6230   14.6570  -33.4410 H   0  0  0  0  0  0  0  0  0  0  0  0
  -37.1110   13.5710  -35.6140 C   0  0  1  0  0  0  0  0  0  0  0  0
  -38.3870   13.4630  -35.0840 F   0  0  0  0  0  0  0  0  0  0  0  0
  -37.0060   13.8370  -37.0980 C   0  0  0  0  0  2  0  0  0  0  0  0
  -36.6700   12.4670  -36.5520 C   0  0  0  0  0  2  0  0  0  0  0  0
  -35.6450   17.4550  -30.9690 C   0  0  0  0  0  1  0  0  0  0  0  0
  -35.8320   17.6940  -33.4340 C   0  0  0  0  0  1  0  0  0  0  0  0
  -37.8340   17.0120  -32.0930 C   0  0  0  0  0  1  0  0  0  0  0  0
  -36.3050   16.8470  -32.2320 C   0  0  1  0  0  0  0  0  0  0  0  0
  -38.8140   14.0280  -23.8950 O   0  0  0  0  0  0  0  0  0  0  0  0
  -36.9070   18.0730  -24.4590 C   0  0  0  0  0  0  0  0  0  0  0  0
  -38.7800   15.9330  -22.1520 C   0  0  0  0  0  2  0  0  0  0  0  0
  -37.4850   16.7000  -22.4640 C   0  0  0  0  0  2  0  0  0  0  0  0
  -38.7320   16.3770  -24.5010 C   0  0  0  0  0  2  0  0  0  0  0  0
  -39.2430   15.3440  -23.4950 C   0  0  1  0  0  0  0  0  0  0  0  0
  -40.7740   15.2150  -23.5620 C   0  0  0  0  0  1  0  0  0  0  0  0
  -37.6230   17.0960  -23.8630 N   0  0  0  0  0  0  0  0  0  0  0  0
  -35.8720   18.5560  -23.9870 O   0  0  0  0  0  0  0  0  0  0  0  0
  -40.3080   19.3220  -28.5140 N   0  0  0  0  0  0  0  0  0  0  0  0
  -40.0040   19.4940  -29.9350 C   0  0  0  0  0  2  0  0  0  0  0  0
  -41.2670   19.5020  -30.8370 C   0  0  0  0  0  2  0  0  0  0  0  0
  -42.3350   18.6840  -30.2640 N   0  0  0  0  0  0  0  0  0  0  0  0
  -42.7550   18.9740  -28.8950 C   0  0  0  0  0  2  0  0  0  0  0  0
  -41.6570   19.7030  -28.0860 C   0  0  0  0  0  2  0  0  0  0  0  0
  -38.5200   19.6840  -25.5080 C   0  0  0  0  0  3  0  0  0  0  0  0
  -37.5660   18.6610  -25.6750 C   0  0  0  0  0  0  0  0  0  0  0  0
  -39.2760   19.2410  -27.6030 C   0  0  0  0  0  0  0  0  0  0  0  0
  -39.4000   19.9680  -26.4910 N   0  0  0  0  0  0  0  0  0  0  0  0
  -37.4300   18.0500  -26.8800 N   0  0  0  0  0  0  0  0  0  0  0  0
  -38.2990   18.3540  -27.8630 N   0  0  0  0  0  0  0  0  0  0  0  0
  -43.2500   18.0700  -31.1470 C   0  0  0  0  0  0  0  0  0  0  0  0
  -44.5600   18.5520  -31.3480 C   0  0  0  0  0  3  0  0  0  0  0  0
  -45.4230   17.8600  -32.2420 C   0  0  0  0  0  0  0  0  0  0  0  0
  -44.9680   16.7470  -32.8860 N   0  0  0  0  0  0  0  0  0  0  0  0
  -43.7350   16.2700  -32.6970 N   0  0  0  0  0  0  0  0  0  0  0  0
  -42.8930   16.9040  -31.8580 C   0  0  0  0  0  0  0  0  0  0  0  0
  -41.6500   16.3230  -31.6790 N   0  0  0  0  0  0  0  0  0  0  0  0
  -41.1880   16.6780  -30.8490 H   0  0  0  0  0  0  0  0  0  0  0  0
  -41.6130   15.3200  -31.7830 H   0  0  0  0  0  0  0  0  0  0  0  0
  -46.8420   18.2740  -32.5250 C   0  0  0  0  0  0  0  0  0  0  0  0
  -47.7460   17.5510  -33.3700 C   0  0  0  0  0  0  0  0  0  0  0  0
  -49.0690   17.9910  -33.5730 C   0  0  0  0  0  3  0  0  0  0  0  0
  -49.5390   19.1570  -32.9520 C   0  0  0  0  0  3  0  0  0  0  0  0
  -48.6770   19.8930  -32.1280 C   0  0  0  0  0  3  0  0  0  0  0  0
  -47.3560   19.4550  -31.9250 C   0  0  0  0  0  3  0  0  0  0  0  0
  -47.4010   16.4020  -34.0260 O   0  0  0  0  0  0  0  0  0  0  0  0
  -46.4840   16.1800  -33.8560 H   0  0  0  0  0  0  0  0  0  0  0  0
  1  2  1  0
  2  3  2  0
  3  9  1  0
  4  6  2  0
  5  4  1  0
  5  1  2  0
  6  3  1  0
  7 12  1  0
  7 10  1  0
  8 10  2  0
  9 11  1  0
  9  7  2  0
 11  8  1  0
 13  5  1  0
 14 15  2  0
 14 16  1  0
 16 13  1  0
 17 16  1  0
 18 22  2  0
 18 21  1  0
 19 23  1  0
 19 14  1  0
 20 21  1  0
 20 24  1  0
 21 19  1  0
 24 25  1  0
 24 23  1  0
 26 25  1  0
 27 39  1  0
 27 18  1  0
 28 31  1  0
 28 27  1  0
 29 28  1  0
 30 29  2  0
 32 33  1  1
 32 29  1  0
 34 35  1  0
 34 32  1  0
 35 32  1  0
 39 37  1  6
 39 38  1  0
 39 36  1  0
 40  1  1  0
 40 45  1  0
 41 48  2  0
 41 47  1  0
 43 42  1  0
 44 47  1  0
 44 45  1  0
 45 46  1  1
 45 42  1  0
 47 43  1  0
 49 54  1  0
 49 57  1  0
 50 49  1  0
 51 52  1  0
 51 50  1  0
 52 53  1  0
 53 54  1  0
 56 55  2  0
 56 41  1  0
 57 58  2  0
 58 55  1  0
 59 56  1  0
 60 57  1  0
 60 59  2  0
 61 52  1  0
 62 61  1  0
 63 62  2  0
 64 65  2  0
 64 63  1  0
 65 66  1  0
 66 67  1  0
 66 61  2  0
 67 68  1  0
 69 67  1  0
 70 63  1  0
 70 75  1  0
 71 70  2  0
 72 71  1  0
 72 73  2  0
 73 74  1  0
 74 75  2  0
 76 77  1  0
 76 71  1  0
M  ISO  4  40 101  45 101  49 100  57 100
M  END
>  <TORSDO>  (157) 
F 15

>  <SCORE>  (157) 
-14.723

>  <name>  (157) 
156

>  <ligand_id>  (157) 
156

>  <original_smiles>  (157) 
[H]Oc1c([H])c([H])c([H])c([H])c1-c1nnc(N([H])[H])c(N2C([H])([H])C([H])([H])N(c3nnc(C(=O)N4C([H])([H])C([H])([H])C(Oc5c([H])c(-c6sc([H])nc6C([H])([H])[H])c([H])c([H])c5C([H])([H])N([H])C(=O)C5([H])N(C(=O)C([H])(N([H])C(=O)C6(F)C([H])([H])C6([H])[H])C(C([H])([H])[H])(C([H])([H])[H])C([H])([H])[H])C([H])([H])C([H])(O[H])C5([H])[H])(C([H])([H])[H])C4([H])[H])c([H])n3)C([H])([H])C2([H])[H])c1[H]

>  <smiles>  (157) 
[H]Oc1c([H])c([H])c([H])c([H])c1-c1nnc(N([H])[H])c(N2C([H])([H])C([H])([H])N(c3nnc(C(=O)N4C([H])([H])C([H])([H])C(Oc5c([H])c(-c6sc([H])nc6C([H])([H])[H])c([H])c([H])c5C([H])([H])N([H])C(=O)C5([H])N(C(=O)C([H])(N([H])C(=O)C6(F)C([H])([H])C6([H])[H])C(C([H])([H])[H])(C([H])([H])[H])C([H])([H])[H])C([H])([H])C([H])(O[H])C5([H])[H])(C([H])([H])[H])C4([H])[H])c([H])n3)C([H])([H])C2([H])[H])c1[H]

$$$$
157:0:0
     RDKit          3D

 76 83  0  0  1  0  0  0  0  0999 V2000
  -37.3740   13.5000  -23.7190 C   0  0  0  0  0  0  0  0  0  0  0  0
  -36.6900   13.4280  -22.4840 C   0  0  0  0  0  3  0  0  0  0  0  0
  -35.4240   12.8070  -22.3920 C   0  0  0  0  0  0  0  0  0  0  0  0
  -35.5260   12.3350  -24.7930 C   0  0  0  0  0  3  0  0  0  0  0  0
  -36.8020   12.9380  -24.8800 C   0  0  0  0  0  0  0  0  0  0  0  0
  -34.8460   12.2790  -23.5640 C   0  0  0  0  0  3  0  0  0  0  0  0
  -35.1990   12.1980  -19.8970 C   0  0  0  0  0  0  0  0  0  0  0  0
  -33.0350   12.5790  -19.3450 C   0  0  0  0  0  3  0  0  0  0  0  0
  -34.7320   12.6660  -21.1110 C   0  0  0  0  0  0  0  0  0  0  0  0
  -34.2180   12.1520  -18.9020 N   0  0  0  0  0  0  0  0  0  0  0  0
  -33.0370   13.0910  -21.0200 S   0  0  0  0  0  0  0  0  0  0  0  0
  -36.5770   11.7220  -19.5540 C   0  0  0  0  0  1  0  0  0  0  0  0
  -37.5830   12.9480  -26.1940 C   0  0  0  0  0  2  0  0  0  0  0  0
  -36.2130   13.7190  -28.1070 C   0  0  0  0  0  0  0  0  0  0  0  0
  -36.4750   14.9140  -27.9440 O   0  0  0  0  0  0  0  0  0  0  0  0
  -36.7500   12.7440  -27.3700 N   0  0  0  0  0  0  0  0  0  0  0  0
  -36.5020   11.7920  -27.5940 H   0  0  0  0  0  0  0  0  0  0  0  0
  -36.1680   14.4430  -31.1300 C   0  0  0  0  0  0  0  0  0  0  0  0
  -35.1730   13.2770  -29.1490 C   0  0  0  0  0  3  0  0  0  0  0  0
  -33.7090   14.5000  -30.6310 C   0  0  0  0  0  2  0  0  0  0  0  0
  -35.1020   14.1420  -30.3420 N   0  0  0  0  0  0  0  0  0  0  0  0
  -37.2890   13.9710  -30.9130 O   0  0  0  0  0  0  0  0  0  0  0  0
  -33.7690   13.3260  -28.5200 C   0  0  0  0  0  2  0  0  0  0  0  0
  -32.8480   13.6830  -29.6690 C   0  0  0  0  0  3  0  0  0  0  0  0
  -32.4180   12.5090  -30.3400 O   0  0  0  0  0  0  0  0  0  0  0  0
  -33.1870   12.0410  -30.6510 H   0  0  0  0  0  0  0  0  0  0  0  0
  -35.9890   15.3640  -32.3660 C   0  0  0  0  0  3  0  0  0  0  0  0
  -35.8100   17.4610  -30.8650 C   0  0  0  0  0  1  0  0  0  0  0  0
  -36.0100   17.7130  -33.3260 C   0  0  0  0  0  1  0  0  0  0  0  0
  -37.9890   16.9740  -31.9840 C   0  0  0  0  0  1  0  0  0  0  0  0
  -36.4570   16.8460  -32.1300 C   0  0  1  0  0  0  0  0  0  0  0  0
  -36.7440   14.7540  -33.4750 N   0  0  0  0  0  0  0  0  0  0  0  0
  -36.2330   14.2250  -34.5950 C   0  0  0  0  0  0  0  0  0  0  0  0
  -35.0260   14.2680  -34.8490 O   0  0  0  0  0  0  0  0  0  0  0  0
  -37.7350   14.6190  -33.3270 H   0  0  0  0  0  0  0  0  0  0  0  0
  -37.2260   13.5740  -35.5220 C   0  0  1  0  0  0  0  0  0  0  0  0
  -38.4850   13.4090  -34.9670 F   0  0  0  0  0  0  0  0  0  0  0  0
  -37.1630   13.8680  -37.0030 C   0  0  0  0  0  2  0  0  0  0  0  0
  -36.7630   12.5040  -36.4870 C   0  0  0  0  0  2  0  0  0  0  0  0
  -38.6170   14.0780  -23.7780 O   0  0  0  0  0  0  0  0  0  0  0  0
  -37.8740   17.6520  -24.5390 C   0  0  0  0  0  3  0  0  0  0  0  0
  -37.6550   16.2980  -24.2240 C   0  0  0  0  0  3  0  0  0  0  0  0
  -40.0500   15.8850  -24.3420 C   0  0  0  0  0  3  0  0  0  0  0  0
  -40.2830   17.2420  -24.6430 C   0  0  0  0  0  0  0  0  0  0  0  0
  -39.1830   18.1280  -24.7490 C   0  0  0  0  0  0  0  0  0  0  0  0
  -38.7470   15.4060  -24.1130 C   0  0  0  0  0  0  0  0  0  0  0  0
  -41.7170   17.7050  -24.8240 C   0  0  0  0  0  1  0  0  0  0  0  0
  -39.3330   20.1970  -26.0990 C   0  0  0  0  0  0  0  0  0  0  0  0
  -39.3750   19.5130  -24.9440 N   0  0  0  0  0  0  0  0  0  0  0  0
  -39.4550   21.4250  -26.1230 O   0  0  0  0  0  0  0  0  0  0  0  0
  -39.5290   20.0630  -24.1130 H   0  0  0  0  0  0  0  0  0  0  0  0
  -40.1760   19.3900  -28.3020 N   0  0  0  0  0  0  0  0  0  0  0  0
  -39.9070   19.4130  -29.7490 C   0  0  0  0  0  2  0  0  0  0  0  0
  -41.1720   19.5150  -30.6270 C   0  0  0  0  0  2  0  0  0  0  0  0
  -42.2110   18.6430  -30.0950 N   0  0  0  0  0  0  0  0  0  0  0  0
  -42.5950   18.8030  -28.6980 C   0  0  0  0  0  2  0  0  0  0  0  0
  -41.5740   19.6510  -27.9100 C   0  0  0  0  0  2  0  0  0  0  0  0
  -39.1280   19.4220  -27.4430 C   0  0  0  0  0  0  0  0  0  0  0  0
  -37.9930   19.0280  -27.7360 O   0  0  0  0  0  0  0  0  0  0  0  0
  -43.0980   18.0210  -30.9970 C   0  0  0  0  0  0  0  0  0  0  0  0
  -44.4090   18.4920  -31.2130 C   0  0  0  0  0  3  0  0  0  0  0  0
  -45.2470   17.8020  -32.1290 C   0  0  0  0  0  0  0  0  0  0  0  0
  -44.7710   16.7020  -32.7770 N   0  0  0  0  0  0  0  0  0  0  0  0
  -43.5370   16.2330  -32.5740 N   0  0  0  0  0  0  0  0  0  0  0  0
  -42.7150   16.8660  -31.7140 C   0  0  0  0  0  0  0  0  0  0  0  0
  -41.4690   16.2940  -31.5230 N   0  0  0  0  0  0  0  0  0  0  0  0
  -41.0150   16.6410  -30.6880 H   0  0  0  0  0  0  0  0  0  0  0  0
  -41.4300   15.2900  -31.6320 H   0  0  0  0  0  0  0  0  0  0  0  0
  -46.6650   18.2060  -32.4290 C   0  0  0  0  0  0  0  0  0  0  0  0
  -47.5550   17.4730  -33.2820 C   0  0  0  0  0  0  0  0  0  0  0  0
  -48.8780   17.9020  -33.4990 C   0  0  0  0  0  3  0  0  0  0  0  0
  -49.3660   19.0660  -32.8880 C   0  0  0  0  0  3  0  0  0  0  0  0
  -48.5160   19.8090  -32.0570 C   0  0  0  0  0  3  0  0  0  0  0  0
  -47.1940   19.3840  -31.8370 C   0  0  0  0  0  3  0  0  0  0  0  0
  -47.1890   16.3270  -33.9270 O   0  0  0  0  0  0  0  0  0  0  0  0
  -46.2730   16.1200  -33.7370 H   0  0  0  0  0  0  0  0  0  0  0  0
  1  2  1  0
  2  3  2  0
  3  9  1  0
  4  6  2  0
  5  4  1  0
  5  1  2  0
  6  3  1  0
  7 12  1  0
  7 10  1  0
  8 10  2  0
  9 11  1  0
  9  7  2  0
 11  8  1  0
 13  5  1  0
 14 15  2  0
 14 16  1  0
 16 13  1  0
 17 16  1  0
 18 22  2  0
 18 21  1  0
 19 23  1  0
 19 14  1  0
 20 21  1  0
 20 24  1  0
 21 19  1  0
 24 25  1  0
 24 23  1  0
 26 25  1  0
 27 31  1  0
 27 18  1  0
 31 29  1  6
 31 30  1  0
 31 28  1  0
 32 35  1  0
 32 27  1  0
 33 32  1  0
 34 33  2  0
 36 37  1  1
 36 33  1  0
 38 39  1  0
 38 36  1  0
 39 36  1  0
 40  1  1  0
 41 42  1  0
 42 46  2  0
 43 46  1  0
 44 43  2  0
 45 44  1  0
 45 41  2  0
 46 40  1  0
 47 44  1  0
 48 49  1  0
 49 45  1  0
 49 51  1  0
 50 48  2  0
 52 57  1  0
 52 58  1  0
 53 52  1  0
 54 55  1  0
 54 53  1  0
 55 56  1  0
 56 57  1  0
 58 48  1  0
 59 58  2  0
 60 55  1  0
 61 60  1  0
 62 61  2  0
 63 64  2  0
 63 62  1  0
 64 65  1  0
 65 66  1  0
 65 60  2  0
 66 67  1  0
 68 66  1  0
 69 62  1  0
 69 74  1  0
 70 69  2  0
 71 70  1  0
 71 72  2  0
 72 73  1  0
 73 74  2  0
 75 76  1  0
 75 70  1  0
M  ISO  4  40 101  46 101  52 100  58 100
M  END
>  <TORSDO>  (158) 
F 16

>  <SCORE>  (158) 
-14.472

>  <name>  (158) 
157

>  <ligand_id>  (158) 
157

>  <original_smiles>  (158) 
[H]Oc1c([H])c([H])c([H])c([H])c1-c1nnc(N([H])[H])c(N2C([H])([H])C([H])([H])N(C(=O)C(=O)N([H])c3c([H])c([H])c(Oc4c([H])c(-c5sc([H])nc5C([H])([H])[H])c([H])c([H])c4C([H])([H])N([H])C(=O)C4([H])N(C(=O)C([H])(N([H])C(=O)C5(F)C([H])([H])C5([H])[H])C(C([H])([H])[H])(C([H])([H])[H])C([H])([H])[H])C([H])([H])C([H])(O[H])C4([H])[H])c([H])c3C([H])([H])[H])C([H])([H])C2([H])[H])c1[H]

>  <smiles>  (158) 
[H]Oc1c([H])c([H])c([H])c([H])c1-c1nnc(N([H])[H])c(N2C([H])([H])C([H])([H])N(C(=O)C(=O)N([H])c3c([H])c([H])c(Oc4c([H])c(-c5sc([H])nc5C([H])([H])[H])c([H])c([H])c4C([H])([H])N([H])C(=O)C4([H])N(C(=O)C([H])(N([H])C(=O)C5(F)C([H])([H])C5([H])[H])C(C([H])([H])[H])(C([H])([H])[H])C([H])([H])[H])C([H])([H])C([H])(O[H])C4([H])[H])c([H])c3C([H])([H])[H])C([H])([H])C2([H])[H])c1[H]

$$$$
158:0:0
     RDKit          3D

 78 86  0  0  1  0  0  0  0  0999 V2000
  -37.3930   13.4810  -23.7110 C   0  0  0  0  0  0  0  0  0  0  0  0
  -36.6850   13.4340  -22.4820 C   0  0  0  0  0  3  0  0  0  0  0  0
  -35.4170   12.8180  -22.3930 C   0  0  0  0  0  0  0  0  0  0  0  0
  -35.5200   12.3490  -24.7910 C   0  0  0  0  0  3  0  0  0  0  0  0
  -36.8020   12.9360  -24.8730 C   0  0  0  0  0  0  0  0  0  0  0  0
  -34.8370   12.2930  -23.5670 C   0  0  0  0  0  3  0  0  0  0  0  0
  -35.2110   12.2490  -19.8850 C   0  0  0  0  0  0  0  0  0  0  0  0
  -33.0380   12.5940  -19.3370 C   0  0  0  0  0  3  0  0  0  0  0  0
  -34.7300   12.6810  -21.1070 C   0  0  0  0  0  0  0  0  0  0  0  0
  -34.2330   12.2030  -18.8890 N   0  0  0  0  0  0  0  0  0  0  0  0
  -33.0250   13.0700  -21.0230 S   0  0  0  0  0  0  0  0  0  0  0  0
  -36.6000   11.8090  -19.5270 C   0  0  0  0  0  1  0  0  0  0  0  0
  -37.5810   12.9420  -26.1890 C   0  0  0  0  0  2  0  0  0  0  0  0
  -36.2090   13.6990  -28.1070 C   0  0  0  0  0  0  0  0  0  0  0  0
  -36.4720   14.8940  -27.9520 O   0  0  0  0  0  0  0  0  0  0  0  0
  -36.7470   12.7280  -27.3650 N   0  0  0  0  0  0  0  0  0  0  0  0
  -36.4880   11.7740  -27.5740 H   0  0  0  0  0  0  0  0  0  0  0  0
  -36.1560   14.4150  -31.1320 C   0  0  0  0  0  0  0  0  0  0  0  0
  -35.1700   13.2510  -29.1470 C   0  0  0  0  0  3  0  0  0  0  0  0
  -33.6970   14.4720  -30.6250 C   0  0  0  0  0  2  0  0  0  0  0  0
  -35.0920   14.1140  -30.3420 N   0  0  0  0  0  0  0  0  0  0  0  0
  -37.2780   13.9440  -30.9160 O   0  0  0  0  0  0  0  0  0  0  0  0
  -33.7690   13.2990  -28.5160 C   0  0  0  0  0  2  0  0  0  0  0  0
  -32.8410   13.6550  -29.6600 C   0  0  0  0  0  3  0  0  0  0  0  0
  -32.4010   12.4840  -30.3310 O   0  0  0  0  0  0  0  0  0  0  0  0
  -33.1640   12.0090  -30.6470 H   0  0  0  0  0  0  0  0  0  0  0  0
  -35.9760   15.3360  -32.3680 C   0  0  0  0  0  3  0  0  0  0  0  0
  -35.7690   17.4410  -30.8820 C   0  0  0  0  0  1  0  0  0  0  0  0
  -36.0240   17.6760  -33.3420 C   0  0  0  0  0  1  0  0  0  0  0  0
  -37.9710   16.9430  -31.9500 C   0  0  0  0  0  1  0  0  0  0  0  0
  -36.4430   16.8190  -32.1290 C   0  0  1  0  0  0  0  0  0  0  0  0
  -36.7320   14.7270  -33.4750 N   0  0  0  0  0  0  0  0  0  0  0  0
  -36.2200   14.1900  -34.5910 C   0  0  0  0  0  0  0  0  0  0  0  0
  -35.0130   14.2220  -34.8400 O   0  0  0  0  0  0  0  0  0  0  0  0
  -37.7250   14.5980  -33.3300 H   0  0  0  0  0  0  0  0  0  0  0  0
  -37.2160   13.5430  -35.5160 C   0  0  1  0  0  0  0  0  0  0  0  0
  -38.4810   13.3970  -34.9700 F   0  0  0  0  0  0  0  0  0  0  0  0
  -37.1390   13.8230  -36.9990 C   0  0  0  0  0  2  0  0  0  0  0  0
  -36.7590   12.4590  -36.4690 C   0  0  0  0  0  2  0  0  0  0  0  0
  -38.6550   14.0120  -23.8570 O   0  0  0  0  0  0  0  0  0  0  0  0
  -40.9030   14.1090  -23.1110 C   0  0  0  0  0  2  0  0  0  0  0  0
  -41.1970   15.3490  -23.9510 C   0  0  0  0  0  2  0  0  0  0  0  0
  -39.3790   15.8250  -22.4660 C   0  0  0  0  0  2  0  0  0  0  0  0
  -39.4460   14.3150  -22.7120 C   0  0  0  0  0  3  0  0  0  0  0  0
  -40.4020   16.4110  -23.3370 N   0  0  0  0  0  0  0  0  0  0  0  0
  -39.1360   19.8410  -24.0070 C   0  0  0  0  0  3  0  0  0  0  0  0
  -39.0390   19.8490  -25.4090 C   0  0  0  0  0  3  0  0  0  0  0  0
  -39.5960   18.6890  -23.3420 C   0  0  0  0  0  3  0  0  0  0  0  0
  -39.9110   17.5640  -25.4840 C   0  0  0  0  0  3  0  0  0  0  0  0
  -39.4250   18.7110  -26.1460 C   0  0  0  0  0  0  0  0  0  0  0  0
  -39.9870   17.5390  -24.0680 C   0  0  0  0  0  0  0  0  0  0  0  0
  -40.2440   19.1410  -28.4360 N   0  0  0  0  0  0  0  0  0  0  0  0
  -39.9850   19.4600  -29.8680 C   0  0  0  0  0  2  0  0  0  0  0  0
  -41.2560   19.4340  -30.7550 C   0  0  0  0  0  2  0  0  0  0  0  0
  -42.3040   18.5930  -30.1810 N   0  0  0  0  0  0  0  0  0  0  0  0
  -42.7260   18.8980  -28.8140 C   0  0  0  0  0  2  0  0  0  0  0  0
  -41.5960   19.5120  -27.9440 C   0  0  0  0  0  2  0  0  0  0  0  0
  -39.2660   18.7310  -27.5970 C   0  0  0  0  0  3  0  0  0  0  0  0
  -38.0780   18.3670  -28.0780 N   0  0  0  0  0  0  0  0  0  0  0  0
  -37.3680   18.0640  -27.4280 H   0  0  0  0  0  0  0  0  0  0  0  0
  -37.9130   18.2470  -29.0600 H   0  0  0  0  0  0  0  0  0  0  0  0
  -43.2270   18.0090  -31.0770 C   0  0  0  0  0  0  0  0  0  0  0  0
  -44.5260   18.5200  -31.2880 C   0  0  0  0  0  3  0  0  0  0  0  0
  -45.3950   17.8530  -32.1950 C   0  0  0  0  0  0  0  0  0  0  0  0
  -44.9570   16.7380  -32.8470 N   0  0  0  0  0  0  0  0  0  0  0  0
  -43.7350   16.2340  -32.6520 N   0  0  0  0  0  0  0  0  0  0  0  0
  -42.8870   16.8420  -31.7990 C   0  0  0  0  0  0  0  0  0  0  0  0
  -41.6570   16.2350  -31.6170 N   0  0  0  0  0  0  0  0  0  0  0  0
  -41.2050   16.5460  -30.7680 H   0  0  0  0  0  0  0  0  0  0  0  0
  -41.6380   15.2350  -31.7560 H   0  0  0  0  0  0  0  0  0  0  0  0
  -46.8030   18.2970  -32.4890 C   0  0  0  0  0  0  0  0  0  0  0  0
  -47.7190   17.5870  -33.3330 C   0  0  0  0  0  0  0  0  0  0  0  0
  -49.0320   18.0520  -33.5430 C   0  0  0  0  0  3  0  0  0  0  0  0
  -49.4820   19.2300  -32.9310 C   0  0  0  0  0  3  0  0  0  0  0  0
  -48.6090   19.9520  -32.1090 C   0  0  0  0  0  3  0  0  0  0  0  0
  -47.2950   19.4910  -31.8970 C   0  0  0  0  0  3  0  0  0  0  0  0
  -47.3940   16.4270  -33.9810 O   0  0  0  0  0  0  0  0  0  0  0  0
  -46.4830   16.1880  -33.8050 H   0  0  0  0  0  0  0  0  0  0  0  0
  1  2  1  0
  2  3  2  0
  3  9  1  0
  4  6  2  0
  5  4  1  0
  5  1  2  0
  6  3  1  0
  7 12  1  0
  7 10  1  0
  8 10  2  0
  9 11  1  0
  9  7  2  0
 11  8  1  0
 13  5  1  0
 14 15  2  0
 14 16  1  0
 16 13  1  0
 17 16  1  0
 18 22  2  0
 18 21  1  0
 19 23  1  0
 19 14  1  0
 20 21  1  0
 20 24  1  0
 21 19  1  0
 24 25  1  0
 24 23  1  0
 26 25  1  0
 27 31  1  0
 27 18  1  0
 31 29  1  6
 31 30  1  0
 31 28  1  0
 32 35  1  0
 32 27  1  0
 33 32  1  0
 34 33  2  0
 36 37  1  1
 36 33  1  0
 38 39  1  0
 38 36  1  0
 39 36  1  0
 40  1  1  0
 41 44  1  0
 42 45  1  0
 42 41  1  0
 44 40  1  0
 44 43  1  0
 45 43  1  0
 46 48  1  0
 47 46  2  0
 49 51  1  0
 50 49  2  0
 50 47  1  0
 51 48  2  0
 51 45  1  0
 52 57  1  0
 52 58  1  0
 53 52  1  0
 54 55  1  0
 54 53  1  0
 55 56  1  0
 56 57  1  0
 58 59  1  0
 58 50  1  0
 59 60  1  0
 61 59  1  0
 62 55  1  0
 63 62  1  0
 64 63  2  0
 65 66  2  0
 65 64  1  0
 66 67  1  0
 67 68  1  0
 67 62  2  0
 68 69  1  0
 70 68  1  0
 71 64  1  0
 71 76  1  0
 72 71  2  0
 73 72  1  0
 73 74  2  0
 74 75  1  0
 75 76  2  0
 77 78  1  0
 77 72  1  0
M  ISO  4  40 101  44 101  52 100  58 100
M  END
>  <TORSDO>  (159) 
F 16

>  <SCORE>  (159) 
-14.484

>  <name>  (159) 
158

>  <ligand_id>  (159) 
158

>  <original_smiles>  (159) 
[H]Oc1c([H])c([H])c([H])c([H])c1-c1nnc(N([H])[H])c(N2C([H])([H])C([H])([H])N(C(c3c([H])c([H])c([H])c(N4C([H])([H])C([H])([H])C([H])(Oc5c([H])c(-c6sc([H])nc6C([H])([H])[H])c([H])c([H])c5C([H])([H])N([H])C(=O)C5([H])N(C(=O)C([H])(N([H])C(=O)C6(F)C([H])([H])C6([H])[H])C(C([H])([H])[H])(C([H])([H])[H])C([H])([H])[H])C([H])([H])C([H])(O[H])C5([H])[H])C4([H])[H])c3[H])=[N+]([H])[H])C([H])([H])C2([H])[H])c1[H]

>  <smiles>  (159) 
[H]Oc1c([H])c([H])c([H])c([H])c1-c1nnc(N([H])[H])c(N2C([H])([H])C([H])([H])N(C(c3c([H])c([H])c([H])c(N4C([H])([H])C([H])([H])C([H])(Oc5c([H])c(-c6sc([H])nc6C([H])([H])[H])c([H])c([H])c5C([H])([H])N([H])C(=O)C5([H])N(C(=O)C([H])(N([H])C(=O)C6(F)C([H])([H])C6([H])[H])C(C([H])([H])[H])(C([H])([H])[H])C([H])([H])[H])C([H])([H])C([H])(O[H])C5([H])[H])C4([H])[H])c3[H])=[N+]([H])[H])C([H])([H])C2([H])[H])c1[H]

$$$$
159:0:0
     RDKit          3D

 73 80  0  0  1  0  0  0  0  0999 V2000
  -37.4090   13.5660  -23.7670 C   0  0  0  0  0  0  0  0  0  0  0  0
  -36.7370   13.4620  -22.5280 C   0  0  0  0  0  3  0  0  0  0  0  0
  -35.5050   12.7770  -22.4130 C   0  0  0  0  0  0  0  0  0  0  0  0
  -35.6020   12.3040  -24.8110 C   0  0  0  0  0  3  0  0  0  0  0  0
  -36.8500   12.9600  -24.9180 C   0  0  0  0  0  0  0  0  0  0  0  0
  -34.9350   12.2240  -23.5760 C   0  0  0  0  0  3  0  0  0  0  0  0
  -35.3260   12.1530  -19.9160 C   0  0  0  0  0  0  0  0  0  0  0  0
  -33.1600   12.4800  -19.3300 C   0  0  0  0  0  3  0  0  0  0  0  0
  -34.8310   12.6130  -21.1210 C   0  0  0  0  0  0  0  0  0  0  0  0
  -34.3610   12.0820  -18.9060 N   0  0  0  0  0  0  0  0  0  0  0  0
  -33.1250   12.9910  -21.0060 S   0  0  0  0  0  0  0  0  0  0  0  0
  -36.7200   11.7090  -19.5910 C   0  0  0  0  0  1  0  0  0  0  0  0
  -37.5810   13.0230  -26.2560 C   0  0  0  0  0  2  0  0  0  0  0  0
  -36.1860   13.7410  -28.1590 C   0  0  0  0  0  0  0  0  0  0  0  0
  -36.4490   14.9390  -28.0180 O   0  0  0  0  0  0  0  0  0  0  0  0
  -36.7350   12.7810  -27.4120 N   0  0  0  0  0  0  0  0  0  0  0  0
  -36.4930   11.8210  -27.6160 H   0  0  0  0  0  0  0  0  0  0  0  0
  -36.1040   14.4280  -31.1850 C   0  0  0  0  0  0  0  0  0  0  0  0
  -35.1400   13.2780  -29.1820 C   0  0  0  0  0  3  0  0  0  0  0  0
  -33.6500   14.4780  -30.6550 C   0  0  0  0  0  2  0  0  0  0  0  0
  -35.0490   14.1320  -30.3820 N   0  0  0  0  0  0  0  0  0  0  0  0
  -37.2300   13.9640  -30.9740 O   0  0  0  0  0  0  0  0  0  0  0  0
  -33.7450   13.3270  -28.5340 C   0  0  0  0  0  2  0  0  0  0  0  0
  -32.8070   13.6660  -29.6740 C   0  0  0  0  0  3  0  0  0  0  0  0
  -32.3740   12.4830  -30.3270 O   0  0  0  0  0  0  0  0  0  0  0  0
  -33.1420   12.0100  -30.6320 H   0  0  0  0  0  0  0  0  0  0  0  0
  -35.9080   15.3340  -32.4300 C   0  0  0  0  0  3  0  0  0  0  0  0
  -35.7040   17.4380  -30.9370 C   0  0  0  0  0  1  0  0  0  0  0  0
  -35.8640   17.6770  -33.4010 C   0  0  0  0  0  1  0  0  0  0  0  0
  -37.8780   16.9890  -32.0800 C   0  0  0  0  0  1  0  0  0  0  0  0
  -36.3480   16.8280  -32.2040 C   0  0  1  0  0  0  0  0  0  0  0  0
  -36.6720   14.7320  -33.5340 N   0  0  0  0  0  0  0  0  0  0  0  0
  -36.1720   14.1940  -34.6550 C   0  0  0  0  0  0  0  0  0  0  0  0
  -34.9660   14.2220  -34.9130 O   0  0  0  0  0  0  0  0  0  0  0  0
  -37.6660   14.6120  -33.3870 H   0  0  0  0  0  0  0  0  0  0  0  0
  -37.1780   13.5540  -35.5750 C   0  0  1  0  0  0  0  0  0  0  0  0
  -38.4380   13.4080  -35.0140 F   0  0  0  0  0  0  0  0  0  0  0  0
  -37.1160   13.8390  -37.0570 C   0  0  0  0  0  2  0  0  0  0  0  0
  -36.7340   12.4720  -36.5350 C   0  0  0  0  0  2  0  0  0  0  0  0
  -38.5030   14.3950  -23.8510 O   0  0  0  0  0  0  0  0  0  0  0  0
  -39.8050   13.8440  -23.9210 C   0  0  0  0  0  2  0  0  0  0  0  0
  -40.6460   14.3980  -25.1020 C   0  0  0  0  0  0  0  0  0  0  0  0
  -39.4720   17.9660  -26.1330 C   0  0  0  0  0  2  0  0  0  0  0  0
  -39.3710   16.6000  -25.3710 C   0  0  0  0  0  2  0  0  0  0  0  0
  -41.2620   16.0210  -26.8480 C   0  0  0  0  0  2  0  0  0  0  0  0
  -39.6330   17.8420  -27.6800 C   0  0  0  0  0  3  0  0  0  0  0  0
  -40.3450   16.4970  -27.9870 C   0  0  0  0  0  3  0  0  0  0  0  0
  -40.4370   15.6170  -25.6950 N   0  0  0  0  0  0  0  0  0  0  0  0
  -41.5500   13.6520  -25.4910 O   0  0  0  0  0  0  0  0  0  0  0  0
  -40.9880   16.4690  -29.1360 F   0  0  0  0  0  0  0  0  0  0  0  0
  -40.1390   19.0860  -28.3410 N   0  0  0  0  0  0  0  0  0  0  0  0
  -39.8390   19.2420  -29.7880 C   0  0  0  0  0  2  0  0  0  0  0  0
  -41.0710   19.4900  -30.7090 C   0  0  0  0  0  2  0  0  0  0  0  0
  -42.2170   18.7140  -30.2480 N   0  0  0  0  0  0  0  0  0  0  0  0
  -42.5910   18.8390  -28.8420 C   0  0  0  0  0  2  0  0  0  0  0  0
  -41.4960   19.5480  -28.0090 C   0  0  0  0  0  2  0  0  0  0  0  0
  -43.0870   18.0630  -31.1440 C   0  0  0  0  0  0  0  0  0  0  0  0
  -44.4090   18.5150  -31.3190 C   0  0  0  0  0  3  0  0  0  0  0  0
  -45.2680   17.8210  -32.2080 C   0  0  0  0  0  0  0  0  0  0  0  0
  -44.8040   16.7260  -32.8750 N   0  0  0  0  0  0  0  0  0  0  0  0
  -43.5590   16.2730  -32.7140 N   0  0  0  0  0  0  0  0  0  0  0  0
  -42.7130   16.9140  -31.8820 C   0  0  0  0  0  0  0  0  0  0  0  0
  -41.4620   16.3450  -31.7640 N   0  0  0  0  0  0  0  0  0  0  0  0
  -41.0540   16.6220  -30.8720 H   0  0  0  0  0  0  0  0  0  0  0  0
  -41.4690   15.3420  -31.8730 H   0  0  0  0  0  0  0  0  0  0  0  0
  -46.6910   18.2220  -32.4690 C   0  0  0  0  0  0  0  0  0  0  0  0
  -47.5860   17.5180  -33.3390 C   0  0  0  0  0  0  0  0  0  0  0  0
  -48.9160   17.9470  -33.5210 C   0  0  0  0  0  3  0  0  0  0  0  0
  -49.4020   19.0800  -32.8540 C   0  0  0  0  0  3  0  0  0  0  0  0
  -48.5490   19.7970  -32.0050 C   0  0  0  0  0  3  0  0  0  0  0  0
  -47.2210   19.3720  -31.8220 C   0  0  0  0  0  3  0  0  0  0  0  0
  -47.2210   16.4030  -34.0400 O   0  0  0  0  0  0  0  0  0  0  0  0
  -46.3020   16.1910  -33.8740 H   0  0  0  0  0  0  0  0  0  0  0  0
  1  2  1  0
  2  3  2  0
  3  9  1  0
  4  6  2  0
  5  4  1  0
  5  1  2  0
  6  3  1  0
  7 12  1  0
  7 10  1  0
  8 10  2  0
  9 11  1  0
  9  7  2  0
 11  8  1  0
 13  5  1  0
 14 15  2  0
 14 16  1  0
 16 13  1  0
 17 16  1  0
 18 22  2  0
 18 21  1  0
 19 23  1  0
 19 14  1  0
 20 21  1  0
 20 24  1  0
 21 19  1  0
 24 25  1  0
 24 23  1  0
 26 25  1  0
 27 31  1  0
 27 18  1  0
 31 29  1  6
 31 30  1  0
 31 28  1  0
 32 35  1  0
 32 27  1  0
 33 32  1  0
 34 33  2  0
 36 37  1  1
 36 33  1  0
 38 39  1  0
 38 36  1  0
 39 36  1  0
 40  1  1  0
 41 40  1  0
 42 41  1  0
 43 44  1  0
 45 48  1  0
 46 43  1  0
 47 50  1  0
 47 46  1  0
 47 45  1  0
 48 44  1  0
 48 42  1  0
 49 42  2  0
 51 52  1  0
 51 56  1  0
 51 46  1  0
 53 54  1  0
 53 52  1  0
 54 55  1  0
 55 56  1  0
 57 54  1  0
 58 57  1  0
 59 58  2  0
 60 61  2  0
 60 59  1  0
 61 62  1  0
 62 63  1  0
 62 57  2  0
 63 64  1  0
 65 63  1  0
 66 59  1  0
 66 71  1  0
 67 66  2  0
 68 67  1  0
 68 69  2  0
 69 70  1  0
 70 71  2  0
 72 73  1  0
 72 67  1  0
M  ISO  4  40 101  41 101  46 100  51 100
M  END
>  <TORSDO>  (160) 
F 16

>  <SCORE>  (160) 
-14.556

>  <name>  (160) 
159

>  <ligand_id>  (160) 
159

>  <original_smiles>  (160) 
[H]Oc1c([H])c([H])c([H])c([H])c1-c1nnc(N([H])[H])c(N2C([H])([H])C([H])([H])N(C3([H])C([H])([H])C([H])([H])N(C(=O)C([H])([H])Oc4c([H])c(-c5sc([H])nc5C([H])([H])[H])c([H])c([H])c4C([H])([H])N([H])C(=O)C4([H])N(C(=O)C([H])(N([H])C(=O)C5(F)C([H])([H])C5([H])[H])C(C([H])([H])[H])(C([H])([H])[H])C([H])([H])[H])C([H])([H])C([H])(O[H])C4([H])[H])C([H])([H])C3([H])F)C([H])([H])C2([H])[H])c1[H]

>  <smiles>  (160) 
[H]Oc1c([H])c([H])c([H])c([H])c1-c1nnc(N([H])[H])c(N2C([H])([H])C([H])([H])N(C3([H])C([H])([H])C([H])([H])N(C(=O)C([H])([H])Oc4c([H])c(-c5sc([H])nc5C([H])([H])[H])c([H])c([H])c4C([H])([H])N([H])C(=O)C4([H])N(C(=O)C([H])(N([H])C(=O)C5(F)C([H])([H])C5([H])[H])C(C([H])([H])[H])(C([H])([H])[H])C([H])([H])[H])C([H])([H])C([H])(O[H])C4([H])[H])C([H])([H])C3([H])F)C([H])([H])C2([H])[H])c1[H]

$$$$
160:0:0
     RDKit          3D

 73 81  0  0  1  0  0  0  0  0999 V2000
  -37.4040   13.4650  -23.6830 C   0  0  0  0  0  0  0  0  0  0  0  0
  -36.6980   13.3890  -22.4620 C   0  0  0  0  0  3  0  0  0  0  0  0
  -35.4310   12.7830  -22.3890 C   0  0  0  0  0  0  0  0  0  0  0  0
  -35.5440   12.3450  -24.7920 C   0  0  0  0  0  3  0  0  0  0  0  0
  -36.8270   12.9330  -24.8610 C   0  0  0  0  0  0  0  0  0  0  0  0
  -34.8550   12.2720  -23.5690 C   0  0  0  0  0  3  0  0  0  0  0  0
  -35.2330   12.1830  -19.8910 C   0  0  0  0  0  0  0  0  0  0  0  0
  -33.0670   12.5350  -19.3310 C   0  0  0  0  0  3  0  0  0  0  0  0
  -34.7490   12.6300  -21.1060 C   0  0  0  0  0  0  0  0  0  0  0  0
  -34.2610   12.1350  -18.8900 N   0  0  0  0  0  0  0  0  0  0  0  0
  -33.0490   13.0250  -21.0130 S   0  0  0  0  0  0  0  0  0  0  0  0
  -36.6210   11.7370  -19.5420 C   0  0  0  0  0  1  0  0  0  0  0  0
  -37.6040   12.9700  -26.1790 C   0  0  0  0  0  2  0  0  0  0  0  0
  -36.2150   13.7190  -28.0930 C   0  0  0  0  0  0  0  0  0  0  0  0
  -36.4540   14.9160  -27.9240 O   0  0  0  0  0  0  0  0  0  0  0  0
  -36.7750   12.7510  -27.3600 N   0  0  0  0  0  0  0  0  0  0  0  0
  -36.5440   11.7930  -27.5830 H   0  0  0  0  0  0  0  0  0  0  0  0
  -36.1560   14.4510  -31.1160 C   0  0  0  0  0  0  0  0  0  0  0  0
  -35.1790   13.2670  -29.1380 C   0  0  0  0  0  3  0  0  0  0  0  0
  -33.6990   14.4840  -30.6120 C   0  0  0  0  0  2  0  0  0  0  0  0
  -35.0960   14.1360  -30.3270 N   0  0  0  0  0  0  0  0  0  0  0  0
  -37.2840   13.9880  -30.9030 O   0  0  0  0  0  0  0  0  0  0  0  0
  -33.7750   13.2990  -28.5080 C   0  0  0  0  0  2  0  0  0  0  0  0
  -32.8480   13.6560  -29.6520 C   0  0  0  0  0  3  0  0  0  0  0  0
  -32.4200   12.4830  -30.3270 O   0  0  0  0  0  0  0  0  0  0  0  0
  -33.1900   12.0180  -30.6420 H   0  0  0  0  0  0  0  0  0  0  0  0
  -35.9670   15.3730  -32.3490 C   0  0  0  0  0  3  0  0  0  0  0  0
  -36.7200   14.7720  -33.4630 N   0  0  0  0  0  0  0  0  0  0  0  0
  -36.2070   14.2250  -34.5730 C   0  0  0  0  0  0  0  0  0  0  0  0
  -34.9970   14.2380  -34.8120 O   0  0  0  0  0  0  0  0  0  0  0  0
  -37.7160   14.6590  -33.3260 H   0  0  0  0  0  0  0  0  0  0  0  0
  -37.2020   13.5890  -35.5080 C   0  0  1  0  0  0  0  0  0  0  0  0
  -38.4750   13.4660  -34.9740 F   0  0  0  0  0  0  0  0  0  0  0  0
  -37.1060   13.8620  -36.9910 C   0  0  0  0  0  2  0  0  0  0  0  0
  -36.7550   12.4930  -36.4510 C   0  0  0  0  0  2  0  0  0  0  0  0
  -35.7540   17.4780  -30.8630 C   0  0  0  0  0  1  0  0  0  0  0  0
  -36.0080   17.7180  -33.3220 C   0  0  0  0  0  1  0  0  0  0  0  0
  -37.9560   16.9860  -31.9340 C   0  0  0  0  0  1  0  0  0  0  0  0
  -36.4290   16.8580  -32.1110 C   0  0  1  0  0  0  0  0  0  0  0  0
  -38.6910   13.9360  -23.7360 O   0  0  0  0  0  0  0  0  0  0  0  0
  -41.2430   15.7100  -23.9510 C   0  0  0  0  0  2  0  0  0  0  0  0
  -40.5390   15.0910  -22.7290 C   0  0  0  0  0  2  0  0  0  0  0  0
  -38.9020   16.2150  -24.0920 C   0  0  0  0  0  2  0  0  0  0  0  0
  -40.1210   15.9170  -24.9730 C   0  0  0  0  0  3  0  0  0  0  0  0
  -39.0320   15.1320  -23.0360 C   0  0  0  0  0  3  0  0  0  0  0  0
  -40.6790   16.1040  -27.4610 C   0  0  0  0  0  2  0  0  0  0  0  0
  -39.8030   16.7540  -28.5250 C   0  0  0  0  0  2  0  0  0  0  0  0
  -39.3350   17.9150  -26.4540 C   0  0  0  0  0  2  0  0  0  0  0  0
  -40.4290   16.8720  -26.1430 C   0  0  0  0  0  3  0  0  0  0  0  0
  -39.3270   18.0950  -27.9650 C   0  0  0  0  0  3  0  0  0  0  0  0
  -40.0630   19.2740  -28.4300 N   0  0  0  0  0  0  0  0  0  0  0  0
  -39.8640   19.5190  -29.8680 C   0  0  0  0  0  2  0  0  0  0  0  0
  -41.1690   19.5460  -30.7080 C   0  0  0  0  0  2  0  0  0  0  0  0
  -42.1730   18.6390  -30.1640 N   0  0  0  0  0  0  0  0  0  0  0  0
  -42.5370   18.8250  -28.7610 C   0  0  0  0  0  2  0  0  0  0  0  0
  -41.4300   19.5590  -27.9620 C   0  0  0  0  0  2  0  0  0  0  0  0
  -43.0990   18.0400  -31.0440 C   0  0  0  0  0  0  0  0  0  0  0  0
  -44.4000   18.5480  -31.2380 C   0  0  0  0  0  3  0  0  0  0  0  0
  -45.2750   17.8760  -32.1330 C   0  0  0  0  0  0  0  0  0  0  0  0
  -44.8450   16.7570  -32.7820 N   0  0  0  0  0  0  0  0  0  0  0  0
  -43.6210   16.2550  -32.6000 N   0  0  0  0  0  0  0  0  0  0  0  0
  -42.7650   16.8710  -31.7640 C   0  0  0  0  0  0  0  0  0  0  0  0
  -41.5300   16.2690  -31.6190 N   0  0  0  0  0  0  0  0  0  0  0  0
  -41.0350   16.6120  -30.8060 H   0  0  0  0  0  0  0  0  0  0  0  0
  -41.5000   15.2680  -31.7430 H   0  0  0  0  0  0  0  0  0  0  0  0
  -46.6840   18.3170  -32.4150 C   0  0  0  0  0  0  0  0  0  0  0  0
  -47.6050   17.6040  -33.2510 C   0  0  0  0  0  0  0  0  0  0  0  0
  -48.9190   18.0700  -33.4550 C   0  0  0  0  0  3  0  0  0  0  0  0
  -49.3640   19.2510  -32.8440 C   0  0  0  0  0  3  0  0  0  0  0  0
  -48.4850   19.9740  -32.0290 C   0  0  0  0  0  3  0  0  0  0  0  0
  -47.1720   19.5140  -31.8240 C   0  0  0  0  0  3  0  0  0  0  0  0
  -47.2850   16.4430  -33.8960 O   0  0  0  0  0  0  0  0  0  0  0  0
  -46.3730   16.2080  -33.7230 H   0  0  0  0  0  0  0  0  0  0  0  0
  1  2  1  0
  2  3  2  0
  3  9  1  0
  4  6  2  0
  5  4  1  0
  5  1  2  0
  6  3  1  0
  7 12  1  0
  7 10  1  0
  8 10  2  0
  9 11  1  0
  9  7  2  0
 11  8  1  0
 13  5  1  0
 14 15  2  0
 14 16  1  0
 16 13  1  0
 17 16  1  0
 18 22  2  0
 18 21  1  0
 19 23  1  0
 19 14  1  0
 20 21  1  0
 20 24  1  0
 21 19  1  0
 24 25  1  0
 24 23  1  0
 26 25  1  0
 27 39  1  0
 27 18  1  0
 28 31  1  0
 28 27  1  0
 29 28  1  0
 30 29  2  0
 32 33  1  1
 32 29  1  0
 34 35  1  0
 34 32  1  0
 35 32  1  0
 39 37  1  6
 39 38  1  0
 39 36  1  0
 40  1  1  0
 41 42  1  0
 43 45  1  0
 44 43  1  0
 44 41  1  0
 45 40  1  0
 45 42  1  0
 47 46  1  0
 48 49  1  0
 49 46  1  0
 49 44  1  0
 50 47  1  0
 50 48  1  0
 51 52  1  0
 51 50  1  0
 51 56  1  0
 53 54  1  0
 53 52  1  0
 54 55  1  0
 55 56  1  0
 57 54  1  0
 58 57  1  0
 59 58  2  0
 60 61  2  0
 60 59  1  0
 61 62  1  0
 62 63  1  0
 62 57  2  0
 63 64  1  0
 65 63  1  0
 66 59  1  0
 66 71  1  0
 67 66  2  0
 68 67  1  0
 68 69  2  0
 69 70  1  0
 70 71  2  0
 72 73  1  0
 72 67  1  0
M  ISO  4  40 101  45 101  50 100  51 100
M  END
>  <TORSDO>  (161) 
F 16

>  <SCORE>  (161) 
-14.396

>  <name>  (161) 
160

>  <ligand_id>  (161) 
160

>  <original_smiles>  (161) 
[H]Oc1c([H])c([H])c([H])c([H])c1-c1nnc(N([H])[H])c(N2C([H])([H])C([H])([H])N(C3([H])C([H])([H])C([H])([H])C([H])(C4([H])C([H])([H])C([H])([H])C([H])(Oc5c([H])c(-c6sc([H])nc6C([H])([H])[H])c([H])c([H])c5C([H])([H])N([H])C(=O)C5([H])N(C(=O)C([H])(N([H])C(=O)C6(F)C([H])([H])C6([H])[H])C(C([H])([H])[H])(C([H])([H])[H])C([H])([H])[H])C([H])([H])C([H])(O[H])C5([H])[H])C4([H])[H])C3([H])[H])C([H])([H])C2([H])[H])c1[H]

>  <smiles>  (161) 
[H]Oc1c([H])c([H])c([H])c([H])c1-c1nnc(N([H])[H])c(N2C([H])([H])C([H])([H])N(C3([H])C([H])([H])C([H])([H])C([H])(C4([H])C([H])([H])C([H])([H])C([H])(Oc5c([H])c(-c6sc([H])nc6C([H])([H])[H])c([H])c([H])c5C([H])([H])N([H])C(=O)C5([H])N(C(=O)C([H])(N([H])C(=O)C6(F)C([H])([H])C6([H])[H])C(C([H])([H])[H])(C([H])([H])[H])C([H])([H])[H])C([H])([H])C([H])(O[H])C5([H])[H])C4([H])[H])C3([H])[H])C([H])([H])C2([H])[H])c1[H]

$$$$
161:0:0
     RDKit          3D

 69 76  0  0  1  0  0  0  0  0999 V2000
  -37.4020   13.8250  -23.9010 C   0  0  0  0  0  0  0  0  0  0  0  0
  -36.7450   13.6860  -22.6160 C   0  0  0  0  0  3  0  0  0  0  0  0
  -35.5030   12.9810  -22.4310 C   0  0  0  0  0  0  0  0  0  0  0  0
  -35.5870   12.4100  -24.7970 C   0  0  0  0  0  3  0  0  0  0  0  0
  -36.8330   13.0690  -24.9560 C   0  0  0  0  0  0  0  0  0  0  0  0
  -34.9180   12.3900  -23.5660 C   0  0  0  0  0  3  0  0  0  0  0  0
  -35.1990   12.3170  -19.9210 C   0  0  0  0  0  0  0  0  0  0  0  0
  -33.0260   12.7120  -19.4020 C   0  0  0  0  0  3  0  0  0  0  0  0
  -34.7820   12.8230  -21.1410 C   0  0  0  0  0  0  0  0  0  0  0  0
  -34.1970   12.2710  -18.9430 N   0  0  0  0  0  0  0  0  0  0  0  0
  -33.0720   13.2310  -21.0760 S   0  0  0  0  0  0  0  0  0  0  0  0
  -36.5520   11.8060  -19.5450 C   0  0  0  0  0  1  0  0  0  0  0  0
  -37.5950   12.8870  -26.2610 C   0  0  0  0  0  2  0  0  0  0  0  0
  -36.1730   13.6870  -28.1120 C   0  0  0  0  0  0  0  0  0  0  0  0
  -36.4250   14.8790  -27.9430 O   0  0  0  0  0  0  0  0  0  0  0  0
  -36.7260   12.7030  -27.4040 N   0  0  0  0  0  0  0  0  0  0  0  0
  -36.4740   11.7520  -27.6370 H   0  0  0  0  0  0  0  0  0  0  0  0
  -36.1200   14.4380  -31.1140 C   0  0  0  0  0  0  0  0  0  0  0  0
  -35.1300   13.2520  -29.1440 C   0  0  0  0  0  3  0  0  0  0  0  0
  -33.6600   14.4830  -30.6050 C   0  0  0  0  0  2  0  0  0  0  0  0
  -35.0560   14.1270  -30.3280 N   0  0  0  0  0  0  0  0  0  0  0  0
  -37.2460   13.9700  -30.9010 O   0  0  0  0  0  0  0  0  0  0  0  0
  -33.7350   13.3020  -28.5000 C   0  0  0  0  0  2  0  0  0  0  0  0
  -32.8080   13.6560  -29.6420 C   0  0  0  0  0  3  0  0  0  0  0  0
  -32.3820   12.4810  -30.3130 O   0  0  0  0  0  0  0  0  0  0  0  0
  -33.1520   12.0200  -30.6320 H   0  0  0  0  0  0  0  0  0  0  0  0
  -35.9360   15.3620  -32.3460 C   0  0  0  0  0  3  0  0  0  0  0  0
  -36.7020   14.7660  -33.4530 N   0  0  0  0  0  0  0  0  0  0  0  0
  -36.1980   14.2130  -34.5660 C   0  0  0  0  0  0  0  0  0  0  0  0
  -34.9890   14.2190  -34.8120 O   0  0  0  0  0  0  0  0  0  0  0  0
  -37.6970   14.6610  -33.3100 H   0  0  0  0  0  0  0  0  0  0  0  0
  -37.2040   13.5820  -35.4920 C   0  0  1  0  0  0  0  0  0  0  0  0
  -38.4740   13.4680  -34.9490 F   0  0  0  0  0  0  0  0  0  0  0  0
  -37.1160   13.8520  -36.9760 C   0  0  0  0  0  2  0  0  0  0  0  0
  -36.7690   12.4830  -36.4370 C   0  0  0  0  0  2  0  0  0  0  0  0
  -35.6850   17.4660  -30.8660 C   0  0  0  0  0  1  0  0  0  0  0  0
  -35.9790   17.7040  -33.3190 C   0  0  0  0  0  1  0  0  0  0  0  0
  -37.9110   16.9880  -31.8950 C   0  0  0  0  0  1  0  0  0  0  0  0
  -36.3860   16.8490  -32.1000 C   0  0  1  0  0  0  0  0  0  0  0  0
  -38.6160   14.5650  -24.0960 O   0  0  0  0  0  0  0  0  0  0  0  0
  -40.3580   18.6890  -27.8260 N   0  0  0  0  0  0  0  0  0  0  0  0
  -39.9200   19.1520  -29.1930 C   0  0  0  0  0  2  0  0  0  0  0  0
  -41.0850   19.3750  -30.2610 C   0  0  0  0  0  2  0  0  0  0  0  0
  -42.2980   18.6250  -29.9160 N   0  0  0  0  0  0  0  0  0  0  0  0
  -42.7720   18.7580  -28.5390 C   0  0  0  0  0  2  0  0  0  0  0  0
  -41.6760   19.2980  -27.5720 C   0  0  0  0  0  2  0  0  0  0  0  0
  -40.3550   15.9740  -25.2890 C   0  0  0  0  0  2  0  0  0  0  0  0
  -38.9910   15.6090  -25.0670 C   0  0  0  0  0  0  0  0  0  0  0  0
  -39.8680   17.6010  -26.9380 C   0  0  0  0  0  0  0  0  0  0  0  0
  -40.7740   16.9420  -26.1860 N   0  0  0  0  0  0  0  0  0  0  0  0
  -38.1150   16.3400  -25.8510 N   0  0  0  0  0  0  0  0  0  0  0  0
  -38.5440   17.2980  -26.7690 N   0  0  0  0  0  2  0  0  0  0  0  0
  -43.1330   18.0210  -30.9000 C   0  0  0  0  0  0  0  0  0  0  0  0
  -44.4630   18.4430  -31.1440 C   0  0  0  0  0  3  0  0  0  0  0  0
  -45.2610   17.7550  -32.1040 C   0  0  0  0  0  0  0  0  0  0  0  0
  -44.7310   16.6920  -32.7730 N   0  0  0  0  0  0  0  0  0  0  0  0
  -43.4860   16.2640  -32.5480 N   0  0  0  0  0  0  0  0  0  0  0  0
  -42.7050   16.8980  -31.6490 C   0  0  0  0  0  0  0  0  0  0  0  0
  -41.4560   16.3420  -31.4370 N   0  0  0  0  0  0  0  0  0  0  0  0
  -41.0520   16.6420  -30.5600 H   0  0  0  0  0  0  0  0  0  0  0  0
  -41.3810   15.3510  -31.6140 H   0  0  0  0  0  0  0  0  0  0  0  0
  -46.6860   18.1130  -32.4370 C   0  0  0  0  0  0  0  0  0  0  0  0
  -47.5340   17.3640  -33.3210 C   0  0  0  0  0  0  0  0  0  0  0  0
  -48.8670   17.7540  -33.5660 C   0  0  0  0  0  3  0  0  0  0  0  0
  -49.4050   18.8950  -32.9550 C   0  0  0  0  0  3  0  0  0  0  0  0
  -48.5990   19.6550  -32.0950 C   0  0  0  0  0  3  0  0  0  0  0  0
  -47.2690   19.2680  -31.8480 C   0  0  0  0  0  3  0  0  0  0  0  0
  -47.1240   16.2350  -33.9740 O   0  0  0  0  0  0  0  0  0  0  0  0
  -46.2060   16.0490  -33.7740 H   0  0  0  0  0  0  0  0  0  0  0  0
  1  2  1  0
  2  3  2  0
  3  9  1  0
  4  6  2  0
  5  4  1  0
  5  1  2  0
  6  3  1  0
  7 12  1  0
  7 10  1  0
  8 10  2  0
  9 11  1  0
  9  7  2  0
 11  8  1  0
 13  5  1  0
 14 15  2  0
 14 16  1  0
 16 13  1  0
 17 16  1  0
 18 22  2  0
 18 21  1  0
 19 23  1  0
 19 14  1  0
 20 21  1  0
 20 24  1  0
 21 19  1  0
 24 25  1  0
 24 23  1  0
 26 25  1  0
 27 39  1  0
 27 18  1  0
 28 31  1  0
 28 27  1  0
 29 28  1  0
 30 29  2  0
 32 33  1  1
 32 29  1  0
 34 35  1  0
 34 32  1  0
 35 32  1  0
 39 37  1  6
 39 38  1  0
 39 36  1  0
 40  1  1  0
 41 46  1  0
 41 49  1  0
 42 41  1  0
 43 44  1  0
 43 42  1  0
 44 45  1  0
 45 46  1  0
 47 48  1  0
 48 40  1  0
 49 52  1  0
 49 50  2  0
 50 47  1  0
 51 48  2  0
 52 51  1  0
 53 44  1  0
 54 53  1  0
 55 54  2  0
 56 57  2  0
 56 55  1  0
 57 58  1  0
 58 59  1  0
 58 53  2  0
 59 60  1  0
 61 59  1  0
 62 55  1  0
 62 67  1  0
 63 62  2  0
 64 63  1  0
 64 65  2  0
 65 66  1  0
 66 67  2  0
 68 69  1  0
 68 63  1  0
M  ISO  4  40 101  41 100  48 101  49 100
M  END
>  <TORSDO>  (162) 
F 14

>  <SCORE>  (162) 
-14.886

>  <name>  (162) 
161

>  <ligand_id>  (162) 
161

>  <original_smiles>  (162) 
[H]Oc1c([H])c([H])c([H])c([H])c1-c1nnc(N([H])[H])c(N2C([H])([H])C([H])([H])N(c3nnc(Oc4c([H])c(-c5sc([H])nc5C([H])([H])[H])c([H])c([H])c4C([H])([H])N([H])C(=O)C4([H])N(C(=O)C([H])(N([H])C(=O)C5(F)C([H])([H])C5([H])[H])C(C([H])([H])[H])(C([H])([H])[H])C([H])([H])[H])C([H])([H])C([H])(O[H])C4([H])[H])c([H])n3)C([H])([H])C2([H])[H])c1[H]

>  <smiles>  (162) 
[H]Oc1c([H])c([H])c([H])c([H])c1-c1nnc(N([H])[H])c(N2C([H])([H])C([H])([H])N(c3nnc(Oc4c([H])c(-c5sc([H])nc5C([H])([H])[H])c([H])c([H])c4C([H])([H])N([H])C(=O)C4([H])N(C(=O)C([H])(N([H])C(=O)C5(F)C([H])([H])C5([H])[H])C(C([H])([H])[H])(C([H])([H])[H])C([H])([H])[H])C([H])([H])C([H])(O[H])C4([H])[H])c([H])n3)C([H])([H])C2([H])[H])c1[H]

$$$$
162:0:0
     RDKit          3D

 78 86  0  0  1  0  0  0  0  0999 V2000
  -37.4130   13.4520  -23.6990 C   0  0  0  0  0  0  0  0  0  0  0  0
  -36.7150   13.3780  -22.4750 C   0  0  0  0  0  3  0  0  0  0  0  0
  -35.4290   12.8100  -22.3940 C   0  0  0  0  0  0  0  0  0  0  0  0
  -35.5280   12.3730  -24.8000 C   0  0  0  0  0  3  0  0  0  0  0  0
  -36.8250   12.9320  -24.8750 C   0  0  0  0  0  0  0  0  0  0  0  0
  -34.8380   12.3180  -23.5760 C   0  0  0  0  0  3  0  0  0  0  0  0
  -35.2150   12.2310  -19.8910 C   0  0  0  0  0  0  0  0  0  0  0  0
  -33.0570   12.6360  -19.3330 C   0  0  0  0  0  3  0  0  0  0  0  0
  -34.7430   12.6820  -21.1090 C   0  0  0  0  0  0  0  0  0  0  0  0
  -34.2400   12.2090  -18.8900 N   0  0  0  0  0  0  0  0  0  0  0  0
  -33.0520   13.1190  -21.0180 S   0  0  0  0  0  0  0  0  0  0  0  0
  -36.5900   11.7550  -19.5400 C   0  0  0  0  0  1  0  0  0  0  0  0
  -37.6060   12.9270  -26.1890 C   0  0  0  0  0  2  0  0  0  0  0  0
  -36.2200   13.6920  -28.0980 C   0  0  0  0  0  0  0  0  0  0  0  0
  -36.4750   14.8870  -27.9310 O   0  0  0  0  0  0  0  0  0  0  0  0
  -36.7690   12.7190  -27.3670 N   0  0  0  0  0  0  0  0  0  0  0  0
  -36.5270   11.7640  -27.5890 H   0  0  0  0  0  0  0  0  0  0  0  0
  -36.1570   14.4230  -31.1200 C   0  0  0  0  0  0  0  0  0  0  0  0
  -35.1750   13.2510  -29.1380 C   0  0  0  0  0  3  0  0  0  0  0  0
  -33.7000   14.4760  -30.6090 C   0  0  0  0  0  2  0  0  0  0  0  0
  -35.0970   14.1190  -30.3280 N   0  0  0  0  0  0  0  0  0  0  0  0
  -37.2810   13.9510  -30.9090 O   0  0  0  0  0  0  0  0  0  0  0  0
  -33.7740   13.2950  -28.5030 C   0  0  0  0  0  2  0  0  0  0  0  0
  -32.8470   13.6560  -29.6450 C   0  0  0  0  0  3  0  0  0  0  0  0
  -32.4080   12.4860  -30.3170 O   0  0  0  0  0  0  0  0  0  0  0  0
  -33.1740   12.0160  -30.6340 H   0  0  0  0  0  0  0  0  0  0  0  0
  -35.9740   15.3480  -32.3540 C   0  0  0  0  0  3  0  0  0  0  0  0
  -36.7250   14.7440  -33.4660 N   0  0  0  0  0  0  0  0  0  0  0  0
  -36.2080   14.2030  -34.5790 C   0  0  0  0  0  0  0  0  0  0  0  0
  -34.9990   14.2290  -34.8210 O   0  0  0  0  0  0  0  0  0  0  0  0
  -37.7190   14.6210  -33.3280 H   0  0  0  0  0  0  0  0  0  0  0  0
  -37.2000   13.5600  -35.5120 C   0  0  1  0  0  0  0  0  0  0  0  0
  -38.4700   13.4220  -34.9750 F   0  0  0  0  0  0  0  0  0  0  0  0
  -37.1110   13.8350  -36.9960 C   0  0  0  0  0  2  0  0  0  0  0  0
  -36.7440   12.4700  -36.4600 C   0  0  0  0  0  2  0  0  0  0  0  0
  -35.7650   17.4520  -30.8680 C   0  0  0  0  0  1  0  0  0  0  0  0
  -36.0260   17.6910  -33.3250 C   0  0  0  0  0  1  0  0  0  0  0  0
  -37.9690   16.9560  -31.9300 C   0  0  0  0  0  1  0  0  0  0  0  0
  -36.4410   16.8300  -32.1130 C   0  0  1  0  0  0  0  0  0  0  0  0
  -38.7060   13.9100  -23.7030 O   0  0  0  0  0  0  0  0  0  0  0  0
  -40.4030   15.5410  -24.0210 C   0  0  0  0  0  2  0  0  0  0  0  0
  -40.6660   17.0020  -24.3900 C   0  0  0  0  0  2  0  0  0  0  0  0
  -38.5550   17.6590  -23.1450 C   0  0  0  0  0  2  0  0  0  0  0  0
  -38.3950   16.2010  -22.6950 C   0  0  0  0  0  3  0  0  0  0  0  0
  -38.8990   15.3060  -23.8510 C   0  0  0  0  0  3  0  0  0  0  0  0
  -39.0770   15.9580  -21.3310 C   0  0  0  0  0  1  0  0  0  0  0  0
  -39.9290   17.9840  -23.5620 N   0  0  0  0  0  0  0  0  0  0  0  0
  -40.3240   20.4400  -23.6940 C   0  0  0  0  0  3  0  0  0  0  0  0
  -39.8870   19.2140  -24.2410 C   0  0  0  0  0  0  0  0  0  0  0  0
  -39.5290   20.2810  -26.2170 C   0  0  0  0  0  0  0  0  0  0  0  0
  -40.3120   21.5640  -24.4590 N   0  0  0  0  0  0  0  0  0  0  0  0
  -39.4340   19.1670  -25.5020 N   0  0  0  0  0  0  0  0  0  0  0  0
  -39.9260   21.4820  -25.7470 N   0  0  0  0  0  0  0  0  0  0  0  0
  -40.2580   19.5730  -28.4530 N   0  0  0  0  0  0  0  0  0  0  0  0
  -40.0220   19.4300  -29.8970 C   0  0  0  0  0  2  0  0  0  0  0  0
  -41.2900   19.5700  -30.7450 C   0  0  0  0  0  2  0  0  0  0  0  0
  -42.3100   18.6810  -30.2260 N   0  0  0  0  0  0  0  0  0  0  0  0
  -42.7270   18.8660  -28.8480 C   0  0  0  0  0  2  0  0  0  0  0  0
  -41.6480   19.5070  -27.9410 C   0  0  0  0  0  2  0  0  0  0  0  0
  -39.2420   20.0750  -27.6960 C   0  0  0  0  0  0  0  0  0  0  0  0
  -38.1080   20.3310  -28.1250 O   0  0  0  0  0  0  0  0  0  0  0  0
  -43.2170   18.1120  -31.1460 C   0  0  0  0  0  0  0  0  0  0  0  0
  -44.5320   18.5940  -31.3250 C   0  0  0  0  0  3  0  0  0  0  0  0
  -45.3810   17.9440  -32.2610 C   0  0  0  0  0  0  0  0  0  0  0  0
  -44.9110   16.8750  -32.9650 N   0  0  0  0  0  0  0  0  0  0  0  0
  -43.6740   16.3980  -32.7980 N   0  0  0  0  0  0  0  0  0  0  0  0
  -42.8440   16.9920  -31.9190 C   0  0  0  0  0  0  0  0  0  0  0  0
  -41.5940   16.4170  -31.7640 N   0  0  0  0  0  0  0  0  0  0  0  0
  -41.1420   16.7260  -30.9140 H   0  0  0  0  0  0  0  0  0  0  0  0
  -41.5450   15.4210  -31.9280 H   0  0  0  0  0  0  0  0  0  0  0  0
  -46.8020   18.3560  -32.5300 C   0  0  0  0  0  0  0  0  0  0  0  0
  -47.7050   17.6490  -33.3910 C   0  0  0  0  0  0  0  0  0  0  0  0
  -49.0320   18.0850  -33.5790 C   0  0  0  0  0  3  0  0  0  0  0  0
  -49.5090   19.2310  -32.9260 C   0  0  0  0  0  3  0  0  0  0  0  0
  -48.6490   19.9490  -32.0850 C   0  0  0  0  0  3  0  0  0  0  0  0
  -47.3240   19.5170  -31.8970 C   0  0  0  0  0  3  0  0  0  0  0  0
  -47.3540   16.5210  -34.0780 O   0  0  0  0  0  0  0  0  0  0  0  0
  -46.4360   16.3010  -33.9140 H   0  0  0  0  0  0  0  0  0  0  0  0
  1  2  1  0
  2  3  2  0
  3  9  1  0
  4  6  2  0
  5  4  1  0
  5  1  2  0
  6  3  1  0
  7 12  1  0
  7 10  1  0
  8 10  2  0
  9 11  1  0
  9  7  2  0
 11  8  1  0
 13  5  1  0
 14 15  2  0
 14 16  1  0
 16 13  1  0
 17 16  1  0
 18 22  2  0
 18 21  1  0
 19 23  1  0
 19 14  1  0
 20 21  1  0
 20 24  1  0
 21 19  1  0
 24 25  1  0
 24 23  1  0
 26 25  1  0
 27 39  1  0
 27 18  1  0
 28 31  1  0
 28 27  1  0
 29 28  1  0
 30 29  2  0
 32 33  1  1
 32 29  1  0
 34 35  1  0
 34 32  1  0
 35 32  1  0
 39 37  1  6
 39 38  1  0
 39 36  1  0
 40  1  1  0
 41 45  1  0
 42 41  1  0
 42 47  1  0
 43 44  1  0
 44 46  1  0
 45 40  1  0
 45 44  1  0
 47 43  1  0
 49 48  2  0
 49 47  1  0
 50 53  1  0
 50 52  2  0
 51 48  1  0
 52 49  1  0
 53 51  2  0
 54 59  1  0
 54 60  1  0
 55 54  1  0
 56 57  1  0
 56 55  1  0
 57 58  1  0
 58 59  1  0
 60 50  1  0
 61 60  2  0
 62 57  1  0
 63 62  1  0
 64 63  2  0
 65 66  2  0
 65 64  1  0
 66 67  1  0
 67 68  1  0
 67 62  2  0
 68 69  1  0
 70 68  1  0
 71 64  1  0
 71 76  1  0
 72 71  2  0
 73 72  1  0
 73 74  2  0
 74 75  1  0
 75 76  2  0
 77 78  1  0
 77 72  1  0
M  ISO  4  40 101  45 101  54 100  60 100
M  END
>  <TORSDO>  (163) 
F 16

>  <SCORE>  (163) 
-14.459

>  <name>  (163) 
162

>  <ligand_id>  (163) 
162

>  <original_smiles>  (163) 
[H]Oc1c([H])c([H])c([H])c([H])c1-c1nnc(N([H])[H])c(N2C([H])([H])C([H])([H])N(C(=O)c3nnc([H])c(N4C([H])([H])C([H])([H])C([H])(Oc5c([H])c(-c6sc([H])nc6C([H])([H])[H])c([H])c([H])c5C([H])([H])N([H])C(=O)C5([H])N(C(=O)C([H])(N([H])C(=O)C6(F)C([H])([H])C6([H])[H])C(C([H])([H])[H])(C([H])([H])[H])C([H])([H])[H])C([H])([H])C([H])(O[H])C5([H])[H])C([H])(C([H])([H])[H])C4([H])[H])n3)C([H])([H])C2([H])[H])c1[H]

>  <smiles>  (163) 
[H]Oc1c([H])c([H])c([H])c([H])c1-c1nnc(N([H])[H])c(N2C([H])([H])C([H])([H])N(C(=O)c3nnc([H])c(N4C([H])([H])C([H])([H])C([H])(Oc5c([H])c(-c6sc([H])nc6C([H])([H])[H])c([H])c([H])c5C([H])([H])N([H])C(=O)C5([H])N(C(=O)C([H])(N([H])C(=O)C6(F)C([H])([H])C6([H])[H])C(C([H])([H])[H])(C([H])([H])[H])C([H])([H])[H])C([H])([H])C([H])(O[H])C5([H])[H])C([H])(C([H])([H])[H])C4([H])[H])n3)C([H])([H])C2([H])[H])c1[H]

$$$$
163:0:0
     RDKit          3D

 77 85  0  0  1  0  0  0  0  0999 V2000
  -37.4200   13.4610  -23.6860 C   0  0  0  0  0  0  0  0  0  0  0  0
  -36.7170   13.3220  -22.4710 C   0  0  0  0  0  3  0  0  0  0  0  0
  -35.4460   12.7390  -22.3950 C   0  0  0  0  0  0  0  0  0  0  0  0
  -35.5610   12.3190  -24.7990 C   0  0  0  0  0  3  0  0  0  0  0  0
  -36.8380   12.9300  -24.8670 C   0  0  0  0  0  0  0  0  0  0  0  0
  -34.8660   12.2410  -23.5790 C   0  0  0  0  0  3  0  0  0  0  0  0
  -35.2770   12.2110  -19.8800 C   0  0  0  0  0  0  0  0  0  0  0  0
  -33.1180   12.5670  -19.3000 C   0  0  0  0  0  3  0  0  0  0  0  0
  -34.7740   12.6140  -21.1020 C   0  0  0  0  0  0  0  0  0  0  0  0
  -34.3180   12.1830  -18.8680 N   0  0  0  0  0  0  0  0  0  0  0  0
  -33.0750   13.0140  -20.9930 S   0  0  0  0  0  0  0  0  0  0  0  0
  -36.6730   11.7920  -19.5320 C   0  0  0  0  0  1  0  0  0  0  0  0
  -37.6080   12.9660  -26.1880 C   0  0  0  0  0  2  0  0  0  0  0  0
  -36.2100   13.6910  -28.1050 C   0  0  0  0  0  0  0  0  0  0  0  0
  -36.4540   14.8900  -27.9420 O   0  0  0  0  0  0  0  0  0  0  0  0
  -36.7800   12.7290  -27.3710 N   0  0  0  0  0  0  0  0  0  0  0  0
  -36.5680   11.7660  -27.5990 H   0  0  0  0  0  0  0  0  0  0  0  0
  -36.1270   14.4200  -31.1250 C   0  0  0  0  0  0  0  0  0  0  0  0
  -35.1630   13.2410  -29.1400 C   0  0  0  0  0  3  0  0  0  0  0  0
  -33.6730   14.4730  -30.5980 C   0  0  0  0  0  2  0  0  0  0  0  0
  -35.0720   14.1150  -30.3260 N   0  0  0  0  0  0  0  0  0  0  0  0
  -37.2520   13.9440  -30.9250 O   0  0  0  0  0  0  0  0  0  0  0  0
  -33.7660   13.2810  -28.4950 C   0  0  0  0  0  2  0  0  0  0  0  0
  -32.8280   13.6520  -29.6270 C   0  0  0  0  0  3  0  0  0  0  0  0
  -32.3840   12.4850  -30.3010 O   0  0  0  0  0  0  0  0  0  0  0  0
  -33.1450   12.0070  -30.6180 H   0  0  0  0  0  0  0  0  0  0  0  0
  -35.9350   15.3450  -32.3550 C   0  0  0  0  0  3  0  0  0  0  0  0
  -35.6780   17.4440  -30.8680 C   0  0  0  0  0  1  0  0  0  0  0  0
  -35.9560   17.6880  -33.3210 C   0  0  0  0  0  1  0  0  0  0  0  0
  -37.9020   16.9830  -31.9070 C   0  0  0  0  0  1  0  0  0  0  0  0
  -36.3780   16.8340  -32.1070 C   0  0  1  0  0  0  0  0  0  0  0  0
  -36.7020   14.7560  -33.4660 N   0  0  0  0  0  0  0  0  0  0  0  0
  -36.2020   14.2130  -34.5840 C   0  0  0  0  0  0  0  0  0  0  0  0
  -34.9940   14.2210  -34.8330 O   0  0  0  0  0  0  0  0  0  0  0  0
  -37.6960   14.6400  -33.3200 H   0  0  0  0  0  0  0  0  0  0  0  0
  -37.2080   13.5890  -35.5160 C   0  0  1  0  0  0  0  0  0  0  0  0
  -38.4770   13.4660  -34.9710 F   0  0  0  0  0  0  0  0  0  0  0  0
  -37.1220   13.8770  -36.9960 C   0  0  0  0  0  2  0  0  0  0  0  0
  -36.7720   12.5010  -36.4720 C   0  0  0  0  0  2  0  0  0  0  0  0
  -38.6470   14.0850  -23.7600 O   0  0  0  0  0  0  0  0  0  0  0  0
  -38.7600   15.6550  -21.7020 C   0  0  0  0  0  2  0  0  0  0  0  0
  -40.6750   15.0780  -23.1010 C   0  0  0  0  0  2  0  0  0  0  0  0
  -38.3950   16.8370  -22.5810 C   0  0  0  0  0  2  0  0  0  0  0  0
  -40.3780   16.2990  -23.9940 C   0  0  0  0  0  2  0  0  0  0  0  0
  -39.3590   14.5040  -22.5660 C   0  0  0  0  0  3  0  0  0  0  0  0
  -39.5720   17.3210  -23.3030 N   0  0  0  0  0  0  0  0  0  0  0  0
  -38.1730   18.1340  -25.1580 C   0  0  0  0  0  3  0  0  0  0  0  0
  -38.1060   18.9770  -26.2630 C   0  0  0  0  0  3  0  0  0  0  0  0
  -40.0750   19.4330  -24.3950 C   0  0  0  0  0  3  0  0  0  0  0  0
  -39.2420   18.3050  -24.2420 C   0  0  0  0  0  0  0  0  0  0  0  0
  -39.1150   19.9370  -26.4280 C   0  0  0  0  0  0  0  0  0  0  0  0
  -40.0090   20.2500  -25.4620 N   0  0  0  0  0  0  0  0  0  0  0  0
  -40.2410   19.6570  -28.5010 N   0  0  0  0  0  0  0  0  0  0  0  0
  -40.0180   19.4490  -29.9320 C   0  0  0  0  0  2  0  0  0  0  0  0
  -41.3050   19.5310  -30.7500 C   0  0  0  0  0  2  0  0  0  0  0  0
  -42.2790   18.6160  -30.1860 N   0  0  0  0  0  0  0  0  0  0  0  0
  -42.7070   18.8830  -28.8280 C   0  0  0  0  0  2  0  0  0  0  0  0
  -41.5750   19.3930  -27.9080 C   0  0  0  0  0  2  0  0  0  0  0  0
  -39.3530   20.4220  -27.8190 C   0  0  0  0  0  0  0  0  0  0  0  0
  -38.5670   21.2380  -28.3230 O   0  0  0  0  0  0  0  0  0  0  0  0
  -43.1990   18.0280  -31.0800 C   0  0  0  0  0  0  0  0  0  0  0  0
  -44.5030   18.5210  -31.2860 C   0  0  0  0  0  3  0  0  0  0  0  0
  -45.3610   17.8460  -32.1960 C   0  0  0  0  0  0  0  0  0  0  0  0
  -44.9100   16.7380  -32.8480 N   0  0  0  0  0  0  0  0  0  0  0  0
  -43.6840   16.2490  -32.6570 N   0  0  0  0  0  0  0  0  0  0  0  0
  -42.8440   16.8690  -31.8040 C   0  0  0  0  0  0  0  0  0  0  0  0
  -41.6110   16.2740  -31.6110 N   0  0  0  0  0  0  0  0  0  0  0  0
  -41.1880   16.5990  -30.7510 H   0  0  0  0  0  0  0  0  0  0  0  0
  -41.6080   15.2700  -31.7140 H   0  0  0  0  0  0  0  0  0  0  0  0
  -46.7730   18.2730  -32.4880 C   0  0  0  0  0  0  0  0  0  0  0  0
  -47.6820   17.5490  -33.3290 C   0  0  0  0  0  0  0  0  0  0  0  0
  -49.0020   18.0000  -33.5390 C   0  0  0  0  0  3  0  0  0  0  0  0
  -49.4590   19.1810  -32.9430 C   0  0  0  0  0  3  0  0  0  0  0  0
  -48.5920   19.9150  -32.1220 C   0  0  0  0  0  3  0  0  0  0  0  0
  -47.2760   19.4670  -31.9070 C   0  0  0  0  0  3  0  0  0  0  0  0
  -47.3480   16.3920  -33.9730 O   0  0  0  0  0  0  0  0  0  0  0  0
  -46.4320   16.1690  -33.8020 H   0  0  0  0  0  0  0  0  0  0  0  0
  1  2  1  0
  2  3  2  0
  3  9  1  0
  4  6  2  0
  5  4  1  0
  5  1  2  0
  6  3  1  0
  7 12  1  0
  7 10  1  0
  8 10  2  0
  9 11  1  0
  9  7  2  0
 11  8  1  0
 13  5  1  0
 14 15  2  0
 14 16  1  0
 16 13  1  0
 17 16  1  0
 18 22  2  0
 18 21  1  0
 19 23  1  0
 19 14  1  0
 20 21  1  0
 20 24  1  0
 21 19  1  0
 24 25  1  0
 24 23  1  0
 26 25  1  0
 27 31  1  0
 27 18  1  0
 31 29  1  6
 31 30  1  0
 31 28  1  0
 32 35  1  0
 32 27  1  0
 33 32  1  0
 34 33  2  0
 36 37  1  1
 36 33  1  0
 38 39  1  0
 38 36  1  0
 39 36  1  0
 40  1  1  0
 42 45  1  0
 43 41  1  0
 44 46  1  0
 44 42  1  0
 45 40  1  0
 45 41  1  0
 46 43  1  0
 47 50  1  0
 48 47  2  0
 49 50  2  0
 50 46  1  0
 51 48  1  0
 51 52  2  0
 52 49  1  0
 53 58  1  0
 53 59  1  0
 54 53  1  0
 55 56  1  0
 55 54  1  0
 56 57  1  0
 57 58  1  0
 59 51  1  0
 60 59  2  0
 61 56  1  0
 62 61  1  0
 63 62  2  0
 64 65  2  0
 64 63  1  0
 65 66  1  0
 66 67  1  0
 66 61  2  0
 67 68  1  0
 69 67  1  0
 70 63  1  0
 70 75  1  0
 71 70  2  0
 72 71  1  0
 72 73  2  0
 73 74  1  0
 74 75  2  0
 76 77  1  0
 76 71  1  0
M  ISO  4  40 101  45 101  53 100  59 100
M  END
>  <TORSDO>  (164) 
F 16

>  <SCORE>  (164) 
-14.449

>  <name>  (164) 
163

>  <ligand_id>  (164) 
163

>  <original_smiles>  (164) 
[H]Oc1c([H])c([H])c([H])c([H])c1-c1nnc(N([H])[H])c(N2C([H])([H])C([H])([H])N(C(=O)c3nc([H])c(N4C([H])([H])C([H])([H])C([H])(Oc5c([H])c(-c6sc([H])nc6C([H])([H])[H])c([H])c([H])c5C([H])([H])N([H])C(=O)C5([H])N(C(=O)C([H])(N([H])C(=O)C6(F)C([H])([H])C6([H])[H])C(C([H])([H])[H])(C([H])([H])[H])C([H])([H])[H])C([H])([H])C([H])(O[H])C5([H])[H])C([H])([H])C4([H])[H])c([H])c3[H])C([H])([H])C2([H])[H])c1[H]

>  <smiles>  (164) 
[H]Oc1c([H])c([H])c([H])c([H])c1-c1nnc(N([H])[H])c(N2C([H])([H])C([H])([H])N(C(=O)c3nc([H])c(N4C([H])([H])C([H])([H])C([H])(Oc5c([H])c(-c6sc([H])nc6C([H])([H])[H])c([H])c([H])c5C([H])([H])N([H])C(=O)C5([H])N(C(=O)C([H])(N([H])C(=O)C6(F)C([H])([H])C6([H])[H])C(C([H])([H])[H])(C([H])([H])[H])C([H])([H])[H])C([H])([H])C([H])(O[H])C5([H])[H])C([H])([H])C4([H])[H])c([H])c3[H])C([H])([H])C2([H])[H])c1[H]

$$$$
164:0:0
     RDKit          3D

 76 84  0  0  1  0  0  0  0  0999 V2000
  -37.3760   13.5320  -23.7080 C   0  0  0  0  0  0  0  0  0  0  0  0
  -36.6850   13.4880  -22.4750 C   0  0  0  0  0  3  0  0  0  0  0  0
  -35.4080   12.8910  -22.3670 C   0  0  0  0  0  0  0  0  0  0  0  0
  -35.5040   12.3700  -24.7530 C   0  0  0  0  0  3  0  0  0  0  0  0
  -36.8010   12.9200  -24.8540 C   0  0  0  0  0  0  0  0  0  0  0  0
  -34.8140   12.3650  -23.5310 C   0  0  0  0  0  3  0  0  0  0  0  0
  -35.1630   12.3200  -19.8620 C   0  0  0  0  0  0  0  0  0  0  0  0
  -33.0050   12.7520  -19.3230 C   0  0  0  0  0  3  0  0  0  0  0  0
  -34.7100   12.7810  -21.0840 C   0  0  0  0  0  0  0  0  0  0  0  0
  -34.1780   12.3090  -18.8700 N   0  0  0  0  0  0  0  0  0  0  0  0
  -33.0210   13.2330  -21.0080 S   0  0  0  0  0  0  0  0  0  0  0  0
  -36.5280   11.8190  -19.5060 C   0  0  0  0  0  1  0  0  0  0  0  0
  -37.5760   12.7470  -26.1670 C   0  0  0  0  0  2  0  0  0  0  0  0
  -36.1770   13.6440  -28.0680 C   0  0  0  0  0  0  0  0  0  0  0  0
  -36.4100   14.8340  -27.8930 O   0  0  0  0  0  0  0  0  0  0  0  0
  -36.7270   12.6540  -27.3550 N   0  0  0  0  0  0  0  0  0  0  0  0
  -36.4690   11.7150  -27.6250 H   0  0  0  0  0  0  0  0  0  0  0  0
  -36.1280   14.4330  -31.0790 C   0  0  0  0  0  0  0  0  0  0  0  0
  -35.1370   13.2270  -29.1160 C   0  0  0  0  0  3  0  0  0  0  0  0
  -33.6710   14.4820  -30.5680 C   0  0  0  0  0  2  0  0  0  0  0  0
  -35.0660   14.1170  -30.2920 N   0  0  0  0  0  0  0  0  0  0  0  0
  -37.2520   13.9630  -30.8700 O   0  0  0  0  0  0  0  0  0  0  0  0
  -33.7400   13.2810  -28.4750 C   0  0  0  0  0  2  0  0  0  0  0  0
  -32.8150   13.6530  -29.6130 C   0  0  0  0  0  3  0  0  0  0  0  0
  -32.3820   12.4860  -30.2940 O   0  0  0  0  0  0  0  0  0  0  0  0
  -33.1490   12.0240  -30.6180 H   0  0  0  0  0  0  0  0  0  0  0  0
  -35.9440   15.3650  -32.3080 C   0  0  0  0  0  3  0  0  0  0  0  0
  -35.6960   17.4640  -30.8200 C   0  0  0  0  0  1  0  0  0  0  0  0
  -35.9920   17.7100  -33.2730 C   0  0  0  0  0  1  0  0  0  0  0  0
  -37.9220   16.9890  -31.8470 C   0  0  0  0  0  1  0  0  0  0  0  0
  -36.3970   16.8500  -32.0560 C   0  0  1  0  0  0  0  0  0  0  0  0
  -36.7070   14.7740  -33.4190 N   0  0  0  0  0  0  0  0  0  0  0  0
  -36.2010   14.2240  -34.5340 C   0  0  0  0  0  0  0  0  0  0  0  0
  -34.9920   14.2280  -34.7770 O   0  0  0  0  0  0  0  0  0  0  0  0
  -37.7030   14.6690  -33.2780 H   0  0  0  0  0  0  0  0  0  0  0  0
  -37.2050   13.5960  -35.4660 C   0  0  1  0  0  0  0  0  0  0  0  0
  -38.4760   13.4810  -34.9250 F   0  0  0  0  0  0  0  0  0  0  0  0
  -37.1120   13.8680  -36.9490 C   0  0  0  0  0  2  0  0  0  0  0  0
  -36.7680   12.4980  -36.4110 C   0  0  0  0  0  2  0  0  0  0  0  0
  -38.5910   14.1750  -23.7690 O   0  0  0  0  0  0  0  0  0  0  0  0
  -38.1610   15.9760  -25.3070 C   0  0  0  0  0  3  0  0  0  0  0  0
  -38.9150   16.5090  -23.0990 C   0  0  0  0  0  3  0  0  0  0  0  0
  -38.4960   18.3270  -24.7430 C   0  0  0  0  0  0  0  0  0  0  0  0
  -38.1530   17.3200  -25.6880 C   0  0  0  0  0  0  0  0  0  0  0  0
  -38.8840   17.8890  -23.4360 C   0  0  0  0  0  0  0  0  0  0  0  0
  -38.5500   15.5300  -24.0410 C   0  0  0  0  0  0  0  0  0  0  0  0
  -37.7910   17.5450  -27.1430 C   0  0  0  0  0  1  0  0  0  0  0  0
  -39.3050   18.8780  -22.3580 C   0  0  0  0  0  1  0  0  0  0  0  0
  -37.5020   20.4090  -26.0820 C   0  0  0  0  0  2  0  0  0  0  0  0
  -38.2570   20.8340  -27.3610 C   0  0  0  0  0  2  0  0  0  0  0  0
  -39.8960   20.2750  -25.6310 C   0  0  0  0  0  2  0  0  0  0  0  0
  -38.5320   19.8390  -25.0880 C   0  0  0  0  0  3  0  0  0  0  0  0
  -39.7690   20.5630  -27.1500 C   0  0  0  0  0  3  0  0  0  0  0  0
  -40.4130   19.5200  -27.9930 N   0  0  0  0  0  0  0  0  0  0  0  0
  -40.0910   19.6630  -29.4370 C   0  0  0  0  0  2  0  0  0  0  0  0
  -41.3010   19.6240  -30.4180 C   0  0  0  0  0  2  0  0  0  0  0  0
  -42.3110   18.6650  -29.9880 N   0  0  0  0  0  0  0  0  0  0  0  0
  -42.6980   18.6590  -28.5870 C   0  0  0  0  0  2  0  0  0  0  0  0
  -41.8630   19.6560  -27.7700 C   0  0  0  0  0  2  0  0  0  0  0  0
  -43.1590   18.0570  -30.9340 C   0  0  0  0  0  0  0  0  0  0  0  0
  -44.4780   18.4980  -31.1640 C   0  0  0  0  0  3  0  0  0  0  0  0
  -45.2780   17.8100  -32.1160 C   0  0  0  0  0  0  0  0  0  0  0  0
  -44.7540   16.7410  -32.7830 N   0  0  0  0  0  0  0  0  0  0  0  0
  -43.5120   16.3010  -32.5640 N   0  0  0  0  0  0  0  0  0  0  0  0
  -42.7280   16.9320  -31.6690 C   0  0  0  0  0  0  0  0  0  0  0  0
  -41.4730   16.3940  -31.4570 N   0  0  0  0  0  0  0  0  0  0  0  0
  -41.0590   16.7390  -30.5980 H   0  0  0  0  0  0  0  0  0  0  0  0
  -41.3930   15.3960  -31.5870 H   0  0  0  0  0  0  0  0  0  0  0  0
  -46.6990   18.1820  -32.4410 C   0  0  0  0  0  0  0  0  0  0  0  0
  -47.5480   17.4420  -33.3290 C   0  0  0  0  0  0  0  0  0  0  0  0
  -48.8770   17.8410  -33.5720 C   0  0  0  0  0  3  0  0  0  0  0  0
  -49.4090   18.9790  -32.9500 C   0  0  0  0  0  3  0  0  0  0  0  0
  -48.6020   19.7270  -32.0830 C   0  0  0  0  0  3  0  0  0  0  0  0
  -47.2750   19.3320  -31.8390 C   0  0  0  0  0  3  0  0  0  0  0  0
  -47.1400   16.3180  -33.9920 O   0  0  0  0  0  0  0  0  0  0  0  0
  -46.2230   16.1250  -33.7870 H   0  0  0  0  0  0  0  0  0  0  0  0
  1  2  1  0
  2  3  2  0
  3  9  1  0
  4  6  2  0
  5  4  1  0
  5  1  2  0
  6  3  1  0
  7 12  1  0
  7 10  1  0
  8 10  2  0
  9 11  1  0
  9  7  2  0
 11  8  1  0
 13  5  1  0
 14 15  2  0
 14 16  1  0
 16 13  1  0
 17 16  1  0
 18 22  2  0
 18 21  1  0
 19 23  1  0
 19 14  1  0
 20 21  1  0
 20 24  1  0
 21 19  1  0
 24 25  1  0
 24 23  1  0
 26 25  1  0
 27 31  1  0
 27 18  1  0
 31 29  1  6
 31 30  1  0
 31 28  1  0
 32 35  1  0
 32 27  1  0
 33 32  1  0
 34 33  2  0
 36 37  1  1
 36 33  1  0
 38 39  1  0
 38 36  1  0
 39 36  1  0
 40  1  1  0
 41 46  1  0
 43 45  2  0
 44 41  2  0
 44 43  1  0
 45 42  1  0
 45 48  1  0
 46 40  1  0
 46 42  2  0
 47 44  1  0
 49 52  1  0
 50 49  1  0
 51 52  1  0
 52 43  1  0
 53 50  1  0
 53 51  1  0
 54 55  1  0
 54 59  1  0
 54 53  1  0
 56 57  1  0
 56 55  1  0
 57 58  1  0
 58 59  1  0
 60 57  1  0
 61 60  1  0
 62 61  2  0
 63 64  2  0
 63 62  1  0
 64 65  1  0
 65 66  1  0
 65 60  2  0
 66 67  1  0
 68 66  1  0
 69 62  1  0
 69 74  1  0
 70 69  2  0
 71 70  1  0
 71 72  2  0
 72 73  1  0
 73 74  2  0
 75 76  1  0
 75 70  1  0
M  ISO  4  40 101  46 101  53 100  54 100
M  END
>  <TORSDO>  (165) 
F 16

>  <SCORE>  (165) 
-14.505

>  <name>  (165) 
164

>  <ligand_id>  (165) 
164

>  <original_smiles>  (165) 
[H]Oc1c([H])c([H])c([H])c([H])c1-c1nnc(N([H])[H])c(N2C([H])([H])C([H])([H])N(C3([H])C([H])([H])C([H])([H])C([H])(c4c(C([H])([H])[H])c([H])c(Oc5c([H])c(-c6sc([H])nc6C([H])([H])[H])c([H])c([H])c5C([H])([H])N([H])C(=O)C5([H])N(C(=O)C([H])(N([H])C(=O)C6(F)C([H])([H])C6([H])[H])C(C([H])([H])[H])(C([H])([H])[H])C([H])([H])[H])C([H])([H])C([H])(O[H])C5([H])[H])c([H])c4C([H])([H])[H])C3([H])[H])C([H])([H])C2([H])[H])c1[H]

>  <smiles>  (165) 
[H]Oc1c([H])c([H])c([H])c([H])c1-c1nnc(N([H])[H])c(N2C([H])([H])C([H])([H])N(C3([H])C([H])([H])C([H])([H])C([H])(c4c(C([H])([H])[H])c([H])c(Oc5c([H])c(-c6sc([H])nc6C([H])([H])[H])c([H])c([H])c5C([H])([H])N([H])C(=O)C5([H])N(C(=O)C([H])(N([H])C(=O)C6(F)C([H])([H])C6([H])[H])C(C([H])([H])[H])(C([H])([H])[H])C([H])([H])[H])C([H])([H])C([H])(O[H])C5([H])[H])c([H])c4C([H])([H])[H])C3([H])[H])C([H])([H])C2([H])[H])c1[H]

$$$$
165:0:0
     RDKit          3D

 77 85  0  0  1  0  0  0  0  0999 V2000
  -37.3490   13.4300  -23.6910 C   0  0  0  0  0  0  0  0  0  0  0  0
  -36.6740   13.3720  -22.4480 C   0  0  0  0  0  3  0  0  0  0  0  0
  -35.3850   12.7920  -22.3430 C   0  0  0  0  0  0  0  0  0  0  0  0
  -35.4430   12.3270  -24.7420 C   0  0  0  0  0  3  0  0  0  0  0  0
  -36.7330   12.8900  -24.8430 C   0  0  0  0  0  0  0  0  0  0  0  0
  -34.7760   12.2870  -23.5090 C   0  0  0  0  0  3  0  0  0  0  0  0
  -35.1420   12.1910  -19.8470 C   0  0  0  0  0  0  0  0  0  0  0  0
  -32.9870   12.6210  -19.2950 C   0  0  0  0  0  3  0  0  0  0  0  0
  -34.6880   12.6710  -21.0600 C   0  0  0  0  0  0  0  0  0  0  0  0
  -34.1600   12.1680  -18.8530 N   0  0  0  0  0  0  0  0  0  0  0  0
  -33.0010   13.1300  -20.9710 S   0  0  0  0  0  0  0  0  0  0  0  0
  -36.5070   11.6800  -19.5070 C   0  0  0  0  0  1  0  0  0  0  0  0
  -37.4650   12.9020  -26.1790 C   0  0  0  0  0  2  0  0  0  0  0  0
  -36.1070   13.6860  -28.0690 C   0  0  0  0  0  0  0  0  0  0  0  0
  -36.3810   14.8770  -27.9040 O   0  0  0  0  0  0  0  0  0  0  0  0
  -36.6200   12.7030  -27.3340 N   0  0  0  0  0  0  0  0  0  0  0  0
  -36.3570   11.7520  -27.5550 H   0  0  0  0  0  0  0  0  0  0  0  0
  -36.0650   14.4280  -31.0790 C   0  0  0  0  0  0  0  0  0  0  0  0
  -35.0730   13.2480  -29.1090 C   0  0  0  0  0  3  0  0  0  0  0  0
  -33.6050   14.4800  -30.5700 C   0  0  0  0  0  2  0  0  0  0  0  0
  -35.0000   14.1220  -30.2910 N   0  0  0  0  0  0  0  0  0  0  0  0
  -37.1870   13.9530  -30.8700 O   0  0  0  0  0  0  0  0  0  0  0  0
  -33.6770   13.2900  -28.4680 C   0  0  0  0  0  2  0  0  0  0  0  0
  -32.7510   13.6540  -29.6080 C   0  0  0  0  0  3  0  0  0  0  0  0
  -32.3190   12.4830  -30.2820 O   0  0  0  0  0  0  0  0  0  0  0  0
  -33.0890   12.0170  -30.5970 H   0  0  0  0  0  0  0  0  0  0  0  0
  -35.8830   15.3580  -32.3070 C   0  0  0  0  0  3  0  0  0  0  0  0
  -35.6930   17.4540  -30.8060 C   0  0  0  0  0  1  0  0  0  0  0  0
  -35.9300   17.7060  -33.2630 C   0  0  0  0  0  1  0  0  0  0  0  0
  -37.8860   16.9580  -31.8930 C   0  0  0  0  0  1  0  0  0  0  0  0
  -36.3560   16.8370  -32.0610 C   0  0  1  0  0  0  0  0  0  0  0  0
  -36.6280   14.7540  -33.4240 N   0  0  0  0  0  0  0  0  0  0  0  0
  -36.1060   14.2130  -34.5330 C   0  0  0  0  0  0  0  0  0  0  0  0
  -34.8940   14.2390  -34.7670 O   0  0  0  0  0  0  0  0  0  0  0  0
  -37.6240   14.6350  -33.2900 H   0  0  0  0  0  0  0  0  0  0  0  0
  -37.0920   13.5720  -35.4740 C   0  0  1  0  0  0  0  0  0  0  0  0
  -38.3660   13.4360  -34.9430 F   0  0  0  0  0  0  0  0  0  0  0  0
  -36.9940   13.8500  -36.9550 C   0  0  0  0  0  2  0  0  0  0  0  0
  -36.6310   12.4830  -36.4180 C   0  0  0  0  0  2  0  0  0  0  0  0
  -38.5370   14.1140  -23.8150 O   0  0  0  0  0  0  0  0  0  0  0  0
  -39.7430   13.4670  -23.4310 C   0  0  0  0  0  2  0  0  0  0  0  0
  -40.5250   12.9660  -24.6630 C   0  0  0  0  0  2  0  0  0  0  0  0
  -40.7730   14.0170  -25.7880 C   0  0  0  0  0  2  0  0  0  0  0  0
  -44.0550   15.5350  -24.4170 C   0  0  0  0  0  3  0  0  0  0  0  0
  -43.7950   16.9230  -24.3340 C   0  0  0  0  0  3  0  0  0  0  0  0
  -43.0940   14.6250  -24.9450 C   0  0  0  0  0  3  0  0  0  0  0  0
  -42.5670   17.3100  -24.8730 C   0  0  0  0  0  0  0  0  0  0  0  0
  -41.6210   16.4360  -25.4890 C   0  0  0  0  0  0  0  0  0  0  0  0
  -41.8230   15.0430  -25.4360 C   0  0  0  0  0  0  0  0  0  0  0  0
  -40.6200   17.5780  -25.7870 C   0  0  0  0  0  3  0  0  0  0  0  0
  -41.7500   18.5310  -25.0990 C   0  0  0  0  0  3  0  0  0  0  0  0
  -41.4370   19.2990  -23.8210 C   0  0  0  0  0  1  0  0  0  0  0  0
  -40.1850   18.9690  -27.9780 N   0  0  0  0  0  0  0  0  0  0  0  0
  -39.7040   19.2250  -29.3700 C   0  0  0  0  0  2  0  0  0  0  0  0
  -40.8840   19.3110  -30.4060 C   0  0  0  0  0  2  0  0  0  0  0  0
  -42.0880   18.6590  -29.8760 N   0  0  0  0  0  0  0  0  0  0  0  0
  -42.5190   19.0480  -28.5260 C   0  0  0  0  0  2  0  0  0  0  0  0
  -41.3580   19.8000  -27.8140 C   0  0  0  0  0  2  0  0  0  0  0  0
  -40.0950   17.7830  -27.2760 C   0  0  0  0  0  0  0  0  0  0  0  0
  -39.5060   16.8220  -27.7800 O   0  0  0  0  0  0  0  0  0  0  0  0
  -42.9870   18.0400  -30.7730 C   0  0  0  0  0  0  0  0  0  0  0  0
  -44.2860   18.5420  -30.9920 C   0  0  0  0  0  3  0  0  0  0  0  0
  -45.1480   17.8720  -31.8990 C   0  0  0  0  0  0  0  0  0  0  0  0
  -44.7070   16.7550  -32.5430 N   0  0  0  0  0  0  0  0  0  0  0  0
  -43.4860   16.2530  -32.3390 N   0  0  0  0  0  0  0  0  0  0  0  0
  -42.6410   16.8660  -31.4830 C   0  0  0  0  0  0  0  0  0  0  0  0
  -41.4190   16.2450  -31.2920 N   0  0  0  0  0  0  0  0  0  0  0  0
  -40.9560   16.5340  -30.4390 H   0  0  0  0  0  0  0  0  0  0  0  0
  -41.3890   15.2530  -31.4720 H   0  0  0  0  0  0  0  0  0  0  0  0
  -46.5530   18.3210  -32.1950 C   0  0  0  0  0  0  0  0  0  0  0  0
  -47.4680   17.6150  -33.0420 C   0  0  0  0  0  0  0  0  0  0  0  0
  -48.7800   18.0860  -33.2560 C   0  0  0  0  0  3  0  0  0  0  0  0
  -49.2260   19.2660  -32.6450 C   0  0  0  0  0  3  0  0  0  0  0  0
  -48.3510   19.9840  -31.8190 C   0  0  0  0  0  3  0  0  0  0  0  0
  -47.0420   19.5160  -31.6040 C   0  0  0  0  0  3  0  0  0  0  0  0
  -47.1450   16.4550  -33.6900 O   0  0  0  0  0  0  0  0  0  0  0  0
  -46.2360   16.2140  -33.5080 H   0  0  0  0  0  0  0  0  0  0  0  0
  1  2  1  0
  2  3  2  0
  3  9  1  0
  4  6  2  0
  5  4  1  0
  5  1  2  0
  6  3  1  0
  7 12  1  0
  7 10  1  0
  8 10  2  0
  9 11  1  0
  9  7  2  0
 11  8  1  0
 13  5  1  0
 14 15  2  0
 14 16  1  0
 16 13  1  0
 17 16  1  0
 18 22  2  0
 18 21  1  0
 19 23  1  0
 19 14  1  0
 20 21  1  0
 20 24  1  0
 21 19  1  0
 24 25  1  0
 24 23  1  0
 26 25  1  0
 27 31  1  0
 27 18  1  0
 31 29  1  6
 31 30  1  0
 31 28  1  0
 32 35  1  0
 32 27  1  0
 33 32  1  0
 34 33  2  0
 36 37  1  1
 36 33  1  0
 38 39  1  0
 38 36  1  0
 39 36  1  0
 40  1  1  0
 40 41  1  0
 42 41  1  0
 43 49  1  0
 43 42  1  0
 44 45  1  0
 46 44  2  0
 47 45  2  0
 48 49  2  0
 48 47  1  0
 49 46  1  0
 50 59  1  0
 50 48  1  0
 50 51  1  0
 51 47  1  0
 51 52  1  0
 53 58  1  0
 53 59  1  0
 54 53  1  0
 55 56  1  0
 55 54  1  0
 56 57  1  0
 57 58  1  0
 60 59  2  0
 61 56  1  0
 62 61  1  0
 63 62  2  0
 64 65  2  0
 64 63  1  0
 65 66  1  0
 66 67  1  0
 66 61  2  0
 67 68  1  0
 69 67  1  0
 70 63  1  0
 70 75  1  0
 71 70  2  0
 72 71  1  0
 72 73  2  0
 73 74  1  0
 74 75  2  0
 76 77  1  0
 76 71  1  0
M  ISO  4  40 101  41 101  53 100  59 100
M  END
>  <TORSDO>  (166) 
F 18

>  <SCORE>  (166) 
-13.908

>  <name>  (166) 
165

>  <ligand_id>  (166) 
165

>  <original_smiles>  (166) 
[H]Oc1c([H])c([H])c([H])c([H])c1-c1nnc(N([H])[H])c(N2C([H])([H])C([H])([H])N(C(=O)C3([H])c4c(C([H])([H])C([H])([H])C([H])([H])Oc5c([H])c(-c6sc([H])nc6C([H])([H])[H])c([H])c([H])c5C([H])([H])N([H])C(=O)C5([H])N(C(=O)C([H])(N([H])C(=O)C6(F)C([H])([H])C6([H])[H])C(C([H])([H])[H])(C([H])([H])[H])C([H])([H])[H])C([H])([H])C([H])(O[H])C5([H])[H])c([H])c([H])c([H])c4C3([H])C([H])([H])[H])C([H])([H])C2([H])[H])c1[H]

>  <smiles>  (166) 
[H]Oc1c([H])c([H])c([H])c([H])c1-c1nnc(N([H])[H])c(N2C([H])([H])C([H])([H])N(C(=O)C3([H])c4c(C([H])([H])C([H])([H])C([H])([H])Oc5c([H])c(-c6sc([H])nc6C([H])([H])[H])c([H])c([H])c5C([H])([H])N([H])C(=O)C5([H])N(C(=O)C([H])(N([H])C(=O)C6(F)C([H])([H])C6([H])[H])C(C([H])([H])[H])(C([H])([H])[H])C([H])([H])[H])C([H])([H])C([H])(O[H])C5([H])[H])c([H])c([H])c([H])c4C3([H])C([H])([H])[H])C([H])([H])C2([H])[H])c1[H]

$$$$
166:0:0
     RDKit          3D

 76 84  0  0  1  0  0  0  0  0999 V2000
  -37.3720   13.5270  -23.7400 C   0  0  0  0  0  0  0  0  0  0  0  0
  -36.6980   13.4300  -22.4980 C   0  0  0  0  0  3  0  0  0  0  0  0
  -35.4410   12.7920  -22.3950 C   0  0  0  0  0  0  0  0  0  0  0  0
  -35.5480   12.2980  -24.7900 C   0  0  0  0  0  3  0  0  0  0  0  0
  -36.8130   12.9220  -24.8880 C   0  0  0  0  0  0  0  0  0  0  0  0
  -34.8650   12.2500  -23.5630 C   0  0  0  0  0  3  0  0  0  0  0  0
  -35.2130   12.2080  -19.8950 C   0  0  0  0  0  0  0  0  0  0  0  0
  -33.0500   12.5950  -19.3420 C   0  0  0  0  0  3  0  0  0  0  0  0
  -34.7460   12.6640  -21.1120 C   0  0  0  0  0  0  0  0  0  0  0  0
  -34.2350   12.1720  -18.8980 N   0  0  0  0  0  0  0  0  0  0  0  0
  -33.0490   13.0890  -21.0230 S   0  0  0  0  0  0  0  0  0  0  0  0
  -36.5900   11.7350  -19.5500 C   0  0  0  0  0  1  0  0  0  0  0  0
  -37.5730   12.9620  -26.2140 C   0  0  0  0  0  2  0  0  0  0  0  0
  -36.1700   13.7000  -28.1150 C   0  0  0  0  0  0  0  0  0  0  0  0
  -36.4070   14.8980  -27.9550 O   0  0  0  0  0  0  0  0  0  0  0  0
  -36.7300   12.7370  -27.3810 N   0  0  0  0  0  0  0  0  0  0  0  0
  -36.4970   11.7770  -27.5970 H   0  0  0  0  0  0  0  0  0  0  0  0
  -36.1120   14.4240  -31.1360 C   0  0  0  0  0  0  0  0  0  0  0  0
  -35.1320   13.2470  -29.1540 C   0  0  0  0  0  3  0  0  0  0  0  0
  -33.6550   14.4670  -30.6250 C   0  0  0  0  0  2  0  0  0  0  0  0
  -35.0520   14.1150  -30.3440 N   0  0  0  0  0  0  0  0  0  0  0  0
  -37.2370   13.9580  -30.9250 O   0  0  0  0  0  0  0  0  0  0  0  0
  -33.7330   13.2900  -28.5170 C   0  0  0  0  0  2  0  0  0  0  0  0
  -32.8050   13.6440  -29.6590 C   0  0  0  0  0  3  0  0  0  0  0  0
  -32.3740   12.4700  -30.3280 O   0  0  0  0  0  0  0  0  0  0  0  0
  -33.1420   12.0030  -30.6430 H   0  0  0  0  0  0  0  0  0  0  0  0
  -35.9240   15.3450  -32.3720 C   0  0  0  0  0  3  0  0  0  0  0  0
  -35.7160   17.4460  -30.8810 C   0  0  0  0  0  1  0  0  0  0  0  0
  -35.9420   17.6900  -33.3410 C   0  0  0  0  0  1  0  0  0  0  0  0
  -37.9120   16.9690  -31.9720 C   0  0  0  0  0  1  0  0  0  0  0  0
  -36.3820   16.8310  -32.1350 C   0  0  1  0  0  0  0  0  0  0  0  0
  -36.6790   14.7410  -33.4830 N   0  0  0  0  0  0  0  0  0  0  0  0
  -36.1670   14.2050  -34.5990 C   0  0  0  0  0  0  0  0  0  0  0  0
  -34.9580   14.2340  -34.8460 O   0  0  0  0  0  0  0  0  0  0  0  0
  -37.6730   14.6180  -33.3390 H   0  0  0  0  0  0  0  0  0  0  0  0
  -37.1610   13.5610  -35.5290 C   0  0  1  0  0  0  0  0  0  0  0  0
  -38.4280   13.4170  -34.9840 F   0  0  0  0  0  0  0  0  0  0  0  0
  -37.0840   13.8450  -37.0110 C   0  0  0  0  0  2  0  0  0  0  0  0
  -36.7060   12.4780  -36.4830 C   0  0  0  0  0  2  0  0  0  0  0  0
  -38.4530   14.3700  -23.8790 O   0  0  0  0  0  0  0  0  0  0  0  0
  -37.9110   15.7050  -23.9970 C   0  0  0  0  0  2  0  0  0  0  0  0
  -39.7360   19.4740  -24.9400 C   0  0  0  0  0  0  0  0  0  0  0  0
  -39.2560   18.6810  -25.9780 C   0  0  0  0  0  0  0  0  0  0  0  0
  -39.8800   18.9650  -23.6340 C   0  0  0  0  0  0  0  0  0  0  0  0
  -38.8090   16.8780  -24.3880 C   0  0  0  0  0  0  0  0  0  0  0  0
  -38.7840   17.3750  -25.7190 C   0  0  0  0  0  0  0  0  0  0  0  0
  -39.4090   17.6560  -23.3650 C   0  0  0  0  0  0  0  0  0  0  0  0
  -39.9480   20.8970  -25.3960 C   0  0  0  0  0  2  0  0  0  0  0  0
  -39.2680   20.9340  -26.7890 C   0  0  0  0  0  2  0  0  0  0  0  0
  -39.1560   19.4620  -27.2820 C   0  0  0  0  0  3  0  0  0  0  0  0
  -40.4420   19.8320  -22.5230 C   0  0  0  0  0  1  0  0  0  0  0  0
  -38.2080   16.6590  -26.7120 F   0  0  0  0  0  0  0  0  0  0  0  0
  -39.4370   17.1870  -22.0930 F   0  0  0  0  0  0  0  0  0  0  0  0
  -40.1980   19.1230  -28.2670 N   0  0  0  0  0  0  0  0  0  0  0  0
  -39.8960   19.5560  -29.6460 C   0  0  0  0  0  2  0  0  0  0  0  0
  -41.1260   19.5230  -30.6090 C   0  0  0  0  0  2  0  0  0  0  0  0
  -42.1870   18.6450  -30.1160 N   0  0  0  0  0  0  0  0  0  0  0  0
  -42.5950   18.7820  -28.7210 C   0  0  0  0  0  2  0  0  0  0  0  0
  -41.5510   19.5460  -27.8850 C   0  0  0  0  0  2  0  0  0  0  0  0
  -43.0730   18.0300  -31.0240 C   0  0  0  0  0  0  0  0  0  0  0  0
  -44.3840   18.5000  -31.2390 C   0  0  0  0  0  3  0  0  0  0  0  0
  -45.2270   17.8070  -32.1470 C   0  0  0  0  0  0  0  0  0  0  0  0
  -44.7540   16.7000  -32.7900 N   0  0  0  0  0  0  0  0  0  0  0  0
  -43.5210   16.2290  -32.5840 N   0  0  0  0  0  0  0  0  0  0  0  0
  -42.6950   16.8670  -31.7300 C   0  0  0  0  0  0  0  0  0  0  0  0
  -41.4520   16.2930  -31.5300 N   0  0  0  0  0  0  0  0  0  0  0  0
  -41.0070   16.6540  -30.6940 H   0  0  0  0  0  0  0  0  0  0  0  0
  -41.4100   15.2890  -31.6240 H   0  0  0  0  0  0  0  0  0  0  0  0
  -46.6440   18.2120  -32.4480 C   0  0  0  0  0  0  0  0  0  0  0  0
  -47.5270   17.4930  -33.3210 C   0  0  0  0  0  0  0  0  0  0  0  0
  -48.8500   17.9250  -33.5420 C   0  0  0  0  0  3  0  0  0  0  0  0
  -49.3430   19.0760  -32.9120 C   0  0  0  0  0  3  0  0  0  0  0  0
  -48.5030   19.8060  -32.0610 C   0  0  0  0  0  3  0  0  0  0  0  0
  -47.1800   19.3780  -31.8390 C   0  0  0  0  0  3  0  0  0  0  0  0
  -47.1580   16.3580  -33.9880 O   0  0  0  0  0  0  0  0  0  0  0  0
  -46.2440   16.1430  -33.8000 H   0  0  0  0  0  0  0  0  0  0  0  0
  1  2  1  0
  2  3  2  0
  3  9  1  0
  4  6  2  0
  5  4  1  0
  5  1  2  0
  6  3  1  0
  7 12  1  0
  7 10  1  0
  8 10  2  0
  9 11  1  0
  9  7  2  0
 11  8  1  0
 13  5  1  0
 14 15  2  0
 14 16  1  0
 16 13  1  0
 17 16  1  0
 18 22  2  0
 18 21  1  0
 19 23  1  0
 19 14  1  0
 20 21  1  0
 20 24  1  0
 21 19  1  0
 24 25  1  0
 24 23  1  0
 26 25  1  0
 27 31  1  0
 27 18  1  0
 31 29  1  6
 31 30  1  0
 31 28  1  0
 32 35  1  0
 32 27  1  0
 33 32  1  0
 34 33  2  0
 36 37  1  1
 36 33  1  0
 38 39  1  0
 38 36  1  0
 39 36  1  0
 40  1  1  0
 41 40  1  0
 42 44  1  0
 43 46  1  0
 43 42  2  0
 44 47  2  0
 44 51  1  0
 45 41  1  0
 45 47  1  0
 46 45  2  0
 47 53  1  0
 48 42  1  0
 49 48  1  0
 50 49  1  0
 50 43  1  0
 52 46  1  0
 54 55  1  0
 54 59  1  0
 54 50  1  0
 56 57  1  0
 56 55  1  0
 57 58  1  0
 58 59  1  0
 60 57  1  0
 61 60  1  0
 62 61  2  0
 63 64  2  0
 63 62  1  0
 64 65  1  0
 65 66  1  0
 65 60  2  0
 66 67  1  0
 68 66  1  0
 69 62  1  0
 69 74  1  0
 70 69  2  0
 71 70  1  0
 71 72  2  0
 72 73  1  0
 73 74  2  0
 75 76  1  0
 75 70  1  0
M  ISO  4  40 101  41 101  50 100  54 100
M  END
>  <TORSDO>  (167) 
F 16

>  <SCORE>  (167) 
-14.409

>  <name>  (167) 
166

>  <ligand_id>  (167) 
166

>  <original_smiles>  (167) 
[H]Oc1c([H])c([H])c([H])c([H])c1-c1nnc(N([H])[H])c(N2C([H])([H])C([H])([H])N(C3([H])c4c(F)c(C([H])([H])Oc5c([H])c(-c6sc([H])nc6C([H])([H])[H])c([H])c([H])c5C([H])([H])N([H])C(=O)C5([H])N(C(=O)C([H])(N([H])C(=O)C6(F)C([H])([H])C6([H])[H])C(C([H])([H])[H])(C([H])([H])[H])C([H])([H])[H])C([H])([H])C([H])(O[H])C5([H])[H])c(F)c(C([H])([H])[H])c4C([H])([H])C3([H])[H])C([H])([H])C2([H])[H])c1[H]

>  <smiles>  (167) 
[H]Oc1c([H])c([H])c([H])c([H])c1-c1nnc(N([H])[H])c(N2C([H])([H])C([H])([H])N(C3([H])c4c(F)c(C([H])([H])Oc5c([H])c(-c6sc([H])nc6C([H])([H])[H])c([H])c([H])c5C([H])([H])N([H])C(=O)C5([H])N(C(=O)C([H])(N([H])C(=O)C6(F)C([H])([H])C6([H])[H])C(C([H])([H])[H])(C([H])([H])[H])C([H])([H])[H])C([H])([H])C([H])(O[H])C5([H])[H])c(F)c(C([H])([H])[H])c4C([H])([H])C3([H])[H])C([H])([H])C2([H])[H])c1[H]

$$$$
167:0:0
     RDKit          3D

 73 80  0  0  1  0  0  0  0  0999 V2000
  -37.4820   13.5550  -23.7330 C   0  0  0  0  0  0  0  0  0  0  0  0
  -36.8000   13.4530  -22.4970 C   0  0  0  0  0  3  0  0  0  0  0  0
  -35.4880   12.9430  -22.4270 C   0  0  0  0  0  0  0  0  0  0  0  0
  -35.5690   12.5350  -24.8390 C   0  0  0  0  0  3  0  0  0  0  0  0
  -36.8850   13.0440  -24.9080 C   0  0  0  0  0  0  0  0  0  0  0  0
  -34.8740   12.5060  -23.6180 C   0  0  0  0  0  3  0  0  0  0  0  0
  -35.2380   12.3870  -19.9270 C   0  0  0  0  0  0  0  0  0  0  0  0
  -33.0770   12.8030  -19.3980 C   0  0  0  0  0  3  0  0  0  0  0  0
  -34.7840   12.8360  -21.1510 C   0  0  0  0  0  0  0  0  0  0  0  0
  -34.2520   12.3680  -18.9400 N   0  0  0  0  0  0  0  0  0  0  0  0
  -33.0980   13.2930  -21.0780 S   0  0  0  0  0  0  0  0  0  0  0  0
  -36.6050   11.9070  -19.5540 C   0  0  0  0  0  1  0  0  0  0  0  0
  -37.6570   13.0070  -26.2260 C   0  0  0  0  0  2  0  0  0  0  0  0
  -36.2630   13.7640  -28.1350 C   0  0  0  0  0  0  0  0  0  0  0  0
  -36.5050   14.9630  -27.9830 O   0  0  0  0  0  0  0  0  0  0  0  0
  -36.8170   12.7990  -27.3950 N   0  0  0  0  0  0  0  0  0  0  0  0
  -36.5740   11.8430  -27.6130 H   0  0  0  0  0  0  0  0  0  0  0  0
  -36.1920   14.4820  -31.1610 C   0  0  0  0  0  0  0  0  0  0  0  0
  -35.2300   13.2980  -29.1730 C   0  0  0  0  0  3  0  0  0  0  0  0
  -33.7340   14.4810  -30.6540 C   0  0  0  0  0  2  0  0  0  0  0  0
  -35.1350   14.1540  -30.3710 N   0  0  0  0  0  0  0  0  0  0  0  0
  -37.3260   14.0400  -30.9490 O   0  0  0  0  0  0  0  0  0  0  0  0
  -33.8280   13.3170  -28.5420 C   0  0  0  0  0  2  0  0  0  0  0  0
  -32.8970   13.6460  -29.6900 C   0  0  0  0  0  3  0  0  0  0  0  0
  -32.4890   12.4570  -30.3500 O   0  0  0  0  0  0  0  0  0  0  0  0
  -33.2630   11.9970  -30.6570 H   0  0  0  0  0  0  0  0  0  0  0  0
  -35.9850   15.3940  -32.4020 C   0  0  0  0  0  3  0  0  0  0  0  0
  -35.7750   17.4970  -30.9120 C   0  0  0  0  0  1  0  0  0  0  0  0
  -35.9560   17.7370  -33.3780 C   0  0  0  0  0  1  0  0  0  0  0  0
  -37.9580   17.0420  -32.0340 C   0  0  0  0  0  1  0  0  0  0  0  0
  -36.4280   16.8860  -32.1770 C   0  0  1  0  0  0  0  0  0  0  0  0
  -36.7380   14.7920  -33.5150 N   0  0  0  0  0  0  0  0  0  0  0  0
  -36.2240   14.2350  -34.6210 C   0  0  0  0  0  0  0  0  0  0  0  0
  -35.0140   14.2430  -34.8560 O   0  0  0  0  0  0  0  0  0  0  0  0
  -37.7340   14.6860  -33.3750 H   0  0  0  0  0  0  0  0  0  0  0  0
  -37.2200   13.5980  -35.5540 C   0  0  1  0  0  0  0  0  0  0  0  0
  -38.4950   13.4800  -35.0220 F   0  0  0  0  0  0  0  0  0  0  0  0
  -37.1210   13.8660  -37.0370 C   0  0  0  0  0  2  0  0  0  0  0  0
  -36.7740   12.4980  -36.4930 C   0  0  0  0  0  2  0  0  0  0  0  0
  -38.6430   14.2900  -23.7990 O   0  0  0  0  0  0  0  0  0  0  0  0
  -37.6090   16.4460  -23.2870 C   0  0  0  0  0  3  0  0  0  0  0  0
  -38.7930   16.1230  -25.3710 C   0  0  0  0  0  3  0  0  0  0  0  0
  -37.1070   17.6820  -23.7450 C   0  0  0  0  0  0  0  0  0  0  0  0
  -38.2970   17.3570  -25.8510 C   0  0  0  0  0  0  0  0  0  0  0  0
  -37.4120   18.1260  -25.0520 C   0  0  0  0  0  0  0  0  0  0  0  0
  -38.3950   15.6170  -24.1210 C   0  0  0  0  0  0  0  0  0  0  0  0
  -36.1830   18.4670  -22.8270 C   0  0  0  0  0  1  0  0  0  0  0  0
  -36.7450   19.3920  -25.5850 C   0  0  0  0  0  1  0  0  0  0  0  0
  -38.7190   17.7830  -27.2490 C   0  0  0  0  0  2  0  0  0  0  0  0
  -39.4040   19.1600  -27.2580 C   0  0  0  0  0  2  0  0  0  0  0  0
  -40.3830   19.1550  -28.3280 N   0  0  0  0  0  0  0  0  0  0  0  0
  -39.9540   19.4800  -29.6950 C   0  0  0  0  0  2  0  0  0  0  0  0
  -41.1530   19.4760  -30.6950 C   0  0  0  0  0  2  0  0  0  0  0  0
  -42.2890   18.7020  -30.1820 N   0  0  0  0  0  0  0  0  0  0  0  0
  -42.7390   18.9570  -28.8110 C   0  0  0  0  0  2  0  0  0  0  0  0
  -41.6800   19.7250  -27.9870 C   0  0  0  0  0  2  0  0  0  0  0  0
  -43.1590   18.0550  -31.0780 C   0  0  0  0  0  0  0  0  0  0  0  0
  -44.4760   18.5070  -31.2930 C   0  0  0  0  0  3  0  0  0  0  0  0
  -45.3080   17.8020  -32.1990 C   0  0  0  0  0  0  0  0  0  0  0  0
  -44.8200   16.6990  -32.8380 N   0  0  0  0  0  0  0  0  0  0  0  0
  -43.5810   16.2440  -32.6310 N   0  0  0  0  0  0  0  0  0  0  0  0
  -42.7650   16.8930  -31.7780 C   0  0  0  0  0  0  0  0  0  0  0  0
  -41.5150   16.3350  -31.5760 N   0  0  0  0  0  0  0  0  0  0  0  0
  -41.0690   16.7040  -30.7440 H   0  0  0  0  0  0  0  0  0  0  0  0
  -41.4650   15.3310  -31.6680 H   0  0  0  0  0  0  0  0  0  0  0  0
  -46.7280   18.1920  -32.5010 C   0  0  0  0  0  0  0  0  0  0  0  0
  -47.6110   17.4480  -33.3500 C   0  0  0  0  0  0  0  0  0  0  0  0
  -48.9380   17.8670  -33.5710 C   0  0  0  0  0  3  0  0  0  0  0  0
  -49.4310   19.0310  -32.9660 C   0  0  0  0  0  3  0  0  0  0  0  0
  -48.5910   19.7860  -32.1360 C   0  0  0  0  0  3  0  0  0  0  0  0
  -47.2660   19.3700  -31.9140 C   0  0  0  0  0  3  0  0  0  0  0  0
  -47.2380   16.3010  -33.9900 O   0  0  0  0  0  0  0  0  0  0  0  0
  -46.3210   16.0970  -33.8010 H   0  0  0  0  0  0  0  0  0  0  0  0
  1  2  1  0
  2  3  2  0
  3  9  1  0
  4  6  2  0
  5  4  1  0
  5  1  2  0
  6  3  1  0
  7 12  1  0
  7 10  1  0
  8 10  2  0
  9 11  1  0
  9  7  2  0
 11  8  1  0
 13  5  1  0
 14 15  2  0
 14 16  1  0
 16 13  1  0
 17 16  1  0
 18 22  2  0
 18 21  1  0
 19 23  1  0
 19 14  1  0
 20 21  1  0
 20 24  1  0
 21 19  1  0
 24 25  1  0
 24 23  1  0
 26 25  1  0
 27 31  1  0
 27 18  1  0
 31 29  1  6
 31 30  1  0
 31 28  1  0
 32 35  1  0
 32 27  1  0
 33 32  1  0
 34 33  2  0
 36 37  1  1
 36 33  1  0
 38 39  1  0
 38 36  1  0
 39 36  1  0
 40  1  1  0
 42 46  1  0
 43 41  1  0
 43 47  1  0
 44 42  2  0
 44 45  1  0
 45 43  2  0
 46 40  1  0
 46 41  2  0
 48 45  1  0
 49 44  1  0
 50 49  1  0
 51 56  1  0
 51 50  1  0
 52 51  1  0
 53 54  1  0
 53 52  1  0
 54 55  1  0
 55 56  1  0
 57 54  1  0
 58 57  1  0
 59 58  2  0
 60 61  2  0
 60 59  1  0
 61 62  1  0
 62 63  1  0
 62 57  2  0
 63 64  1  0
 65 63  1  0
 66 59  1  0
 66 71  1  0
 67 66  2  0
 68 67  1  0
 68 69  2  0
 69 70  1  0
 70 71  2  0
 72 73  1  0
 72 67  1  0
M  ISO  4  40 101  46 101  50 100  51 100
M  END
>  <TORSDO>  (168) 
F 17

>  <SCORE>  (168) 
-14.370

>  <name>  (168) 
167

>  <ligand_id>  (168) 
167

>  <original_smiles>  (168) 
[H]Oc1c([H])c([H])c([H])c([H])c1-c1nnc(N([H])[H])c(N2C([H])([H])C([H])([H])N(C([H])([H])C([H])([H])c3c([H])c(Oc4c([H])c(-c5sc([H])nc5C([H])([H])[H])c([H])c([H])c4C([H])([H])N([H])C(=O)C4([H])N(C(=O)C([H])(N([H])C(=O)C5(F)C([H])([H])C5([H])[H])C(C([H])([H])[H])(C([H])([H])[H])C([H])([H])[H])C([H])([H])C([H])(O[H])C4([H])[H])c([H])c(C([H])([H])[H])c3C([H])([H])[H])C([H])([H])C2([H])[H])c1[H]

>  <smiles>  (168) 
[H]Oc1c([H])c([H])c([H])c([H])c1-c1nnc(N([H])[H])c(N2C([H])([H])C([H])([H])N(C([H])([H])C([H])([H])c3c([H])c(Oc4c([H])c(-c5sc([H])nc5C([H])([H])[H])c([H])c([H])c4C([H])([H])N([H])C(=O)C4([H])N(C(=O)C([H])(N([H])C(=O)C5(F)C([H])([H])C5([H])[H])C(C([H])([H])[H])(C([H])([H])[H])C([H])([H])[H])C([H])([H])C([H])(O[H])C4([H])[H])c([H])c(C([H])([H])[H])c3C([H])([H])[H])C([H])([H])C2([H])[H])c1[H]

$$$$
168:0:0
     RDKit          3D

 72 79  0  0  1  0  0  0  0  0999 V2000
  -37.3910   13.5300  -23.7330 C   0  0  0  0  0  0  0  0  0  0  0  0
  -36.7180   13.4550  -22.4880 C   0  0  0  0  0  3  0  0  0  0  0  0
  -35.4650   12.8050  -22.3740 C   0  0  0  0  0  0  0  0  0  0  0  0
  -35.5700   12.2890  -24.7660 C   0  0  0  0  0  3  0  0  0  0  0  0
  -36.8330   12.9120  -24.8700 C   0  0  0  0  0  0  0  0  0  0  0  0
  -34.8910   12.2480  -23.5360 C   0  0  0  0  0  3  0  0  0  0  0  0
  -35.2430   12.2390  -19.8650 C   0  0  0  0  0  0  0  0  0  0  0  0
  -33.0690   12.5830  -19.3260 C   0  0  0  0  0  3  0  0  0  0  0  0
  -34.7720   12.6730  -21.0900 C   0  0  0  0  0  0  0  0  0  0  0  0
  -34.2610   12.1940  -18.8710 N   0  0  0  0  0  0  0  0  0  0  0  0
  -33.0650   13.0550  -21.0140 S   0  0  0  0  0  0  0  0  0  0  0  0
  -36.6280   11.8000  -19.5060 C   0  0  0  0  0  1  0  0  0  0  0  0
  -37.6090   12.9140  -26.1850 C   0  0  0  0  0  2  0  0  0  0  0  0
  -36.2170   13.6900  -28.0760 C   0  0  0  0  0  0  0  0  0  0  0  0
  -36.4650   14.8840  -27.8980 O   0  0  0  0  0  0  0  0  0  0  0  0
  -36.7700   12.7120  -27.3560 N   0  0  0  0  0  0  0  0  0  0  0  0
  -36.5310   11.7560  -27.5860 H   0  0  0  0  0  0  0  0  0  0  0  0
  -36.1640   14.4360  -31.0890 C   0  0  0  0  0  0  0  0  0  0  0  0
  -35.1780   13.2500  -29.1180 C   0  0  0  0  0  3  0  0  0  0  0  0
  -33.7050   14.4790  -30.5840 C   0  0  0  0  0  2  0  0  0  0  0  0
  -35.1010   14.1250  -30.3020 N   0  0  0  0  0  0  0  0  0  0  0  0
  -37.2880   13.9650  -30.8800 O   0  0  0  0  0  0  0  0  0  0  0  0
  -33.7770   13.2890  -28.4840 C   0  0  0  0  0  2  0  0  0  0  0  0
  -32.8510   13.6510  -29.6260 C   0  0  0  0  0  3  0  0  0  0  0  0
  -32.4220   12.4810  -30.3040 O   0  0  0  0  0  0  0  0  0  0  0  0
  -33.1890   12.0170  -30.6210 H   0  0  0  0  0  0  0  0  0  0  0  0
  -35.9800   15.3660  -32.3180 C   0  0  0  0  0  3  0  0  0  0  0  0
  -35.7500   17.4640  -30.8250 C   0  0  0  0  0  1  0  0  0  0  0  0
  -36.0260   17.7120  -33.2800 C   0  0  0  0  0  1  0  0  0  0  0  0
  -37.9650   16.9820  -31.8750 C   0  0  0  0  0  1  0  0  0  0  0  0
  -36.4390   16.8500  -32.0680 C   0  0  1  0  0  0  0  0  0  0  0  0
  -36.7380   14.7710  -33.4320 N   0  0  0  0  0  0  0  0  0  0  0  0
  -36.2290   14.2210  -34.5430 C   0  0  0  0  0  0  0  0  0  0  0  0
  -35.0190   14.2300  -34.7830 O   0  0  0  0  0  0  0  0  0  0  0  0
  -37.7340   14.6630  -33.2930 H   0  0  0  0  0  0  0  0  0  0  0  0
  -37.2280   13.5910  -35.4770 C   0  0  1  0  0  0  0  0  0  0  0  0
  -38.5010   13.4730  -34.9410 F   0  0  0  0  0  0  0  0  0  0  0  0
  -37.1320   13.8640  -36.9600 C   0  0  0  0  0  2  0  0  0  0  0  0
  -36.7860   12.4930  -36.4220 C   0  0  0  0  0  2  0  0  0  0  0  0
  -38.5660   14.2320  -23.8740 O   0  0  0  0  0  0  0  0  0  0  0  0
  -38.3670   15.6580  -23.9330 C   0  0  0  0  0  2  0  0  0  0  0  0
  -37.8830   17.2110  -25.9120 C   0  0  0  0  0  3  0  0  0  0  0  0
  -40.5200   17.1380  -26.7910 C   0  0  0  0  0  3  0  0  0  0  0  0
  -38.7940   16.3610  -25.2390 C   0  0  0  0  0  0  0  0  0  0  0  0
  -38.2880   18.0580  -26.9780 C   0  0  0  0  0  0  0  0  0  0  0  0
  -40.1210   16.3000  -25.7230 C   0  0  0  0  0  0  0  0  0  0  0  0
  -39.6440   18.0770  -27.3990 C   0  0  0  0  0  0  0  0  0  0  0  0
  -37.2650   19.0000  -27.5900 C   0  0  0  0  0  1  0  0  0  0  0  0
  -41.1510   15.3900  -25.0760 C   0  0  0  0  0  1  0  0  0  0  0  0
  -40.1570   19.0870  -28.2620 N   0  0  0  0  0  0  0  0  0  0  0  0
  -39.7720   19.2650  -29.6750 C   0  0  0  0  0  2  0  0  0  0  0  0
  -41.0000   19.3660  -30.6420 C   0  0  0  0  0  2  0  0  0  0  0  0
  -42.1550   18.6360  -30.1140 N   0  0  0  0  0  0  0  0  0  0  0  0
  -42.6020   18.9760  -28.7630 C   0  0  0  0  0  2  0  0  0  0  0  0
  -41.4750   19.6170  -27.9140 C   0  0  0  0  0  2  0  0  0  0  0  0
  -43.0690   18.0350  -31.0080 C   0  0  0  0  0  0  0  0  0  0  0  0
  -44.3700   18.5400  -31.2170 C   0  0  0  0  0  3  0  0  0  0  0  0
  -45.2450   17.8600  -32.1080 C   0  0  0  0  0  0  0  0  0  0  0  0
  -44.8130   16.7330  -32.7410 N   0  0  0  0  0  0  0  0  0  0  0  0
  -43.5910   16.2300  -32.5430 N   0  0  0  0  0  0  0  0  0  0  0  0
  -42.7370   16.8520  -31.7060 C   0  0  0  0  0  0  0  0  0  0  0  0
  -41.5120   16.2370  -31.5120 N   0  0  0  0  0  0  0  0  0  0  0  0
  -41.0510   16.5810  -30.6790 H   0  0  0  0  0  0  0  0  0  0  0  0
  -41.5050   15.2320  -31.6090 H   0  0  0  0  0  0  0  0  0  0  0  0
  -46.6530   18.3050  -32.3970 C   0  0  0  0  0  0  0  0  0  0  0  0
  -47.5780   17.5850  -33.2230 C   0  0  0  0  0  0  0  0  0  0  0  0
  -48.8900   18.0560  -33.4340 C   0  0  0  0  0  3  0  0  0  0  0  0
  -49.3290   19.2470  -32.8400 C   0  0  0  0  0  3  0  0  0  0  0  0
  -48.4460   19.9780  -32.0360 C   0  0  0  0  0  3  0  0  0  0  0  0
  -47.1350   19.5130  -31.8240 C   0  0  0  0  0  3  0  0  0  0  0  0
  -47.2640   16.4130  -33.8520 O   0  0  0  0  0  0  0  0  0  0  0  0
  -46.3540   16.1720  -33.6750 H   0  0  0  0  0  0  0  0  0  0  0  0
  1  2  1  0
  2  3  2  0
  3  9  1  0
  4  6  2  0
  5  4  1  0
  5  1  2  0
  6  3  1  0
  7 12  1  0
  7 10  1  0
  8 10  2  0
  9 11  1  0
  9  7  2  0
 11  8  1  0
 13  5  1  0
 14 15  2  0
 14 16  1  0
 16 13  1  0
 17 16  1  0
 18 22  2  0
 18 21  1  0
 19 23  1  0
 19 14  1  0
 20 21  1  0
 20 24  1  0
 21 19  1  0
 24 25  1  0
 24 23  1  0
 26 25  1  0
 27 31  1  0
 27 18  1  0
 31 29  1  6
 31 30  1  0
 31 28  1  0
 32 35  1  0
 32 27  1  0
 33 32  1  0
 34 33  2  0
 36 37  1  1
 36 33  1  0
 38 39  1  0
 38 36  1  0
 39 36  1  0
 40  1  1  0
 41 40  1  0
 42 44  1  0
 43 46  1  0
 44 41  1  0
 45 42  2  0
 46 44  2  0
 46 49  1  0
 47 45  1  0
 47 43  2  0
 48 45  1  0
 50 55  1  0
 50 47  1  0
 51 50  1  0
 52 53  1  0
 52 51  1  0
 53 54  1  0
 54 55  1  0
 56 53  1  0
 57 56  1  0
 58 57  2  0
 59 60  2  0
 59 58  1  0
 60 61  1  0
 61 62  1  0
 61 56  2  0
 62 63  1  0
 64 62  1  0
 65 58  1  0
 65 70  1  0
 66 65  2  0
 67 66  1  0
 67 68  2  0
 68 69  1  0
 69 70  2  0
 71 72  1  0
 71 66  1  0
M  ISO  4  40 101  41 101  47 100  50 100
M  END
>  <TORSDO>  (169) 
F 16

>  <SCORE>  (169) 
-14.424

>  <name>  (169) 
168

>  <ligand_id>  (169) 
168

>  <original_smiles>  (169) 
[H]Oc1c([H])c([H])c([H])c([H])c1-c1nnc(N([H])[H])c(N2C([H])([H])C([H])([H])N(c3c([H])c(C([H])([H])[H])c(C([H])([H])Oc4c([H])c(-c5sc([H])nc5C([H])([H])[H])c([H])c([H])c4C([H])([H])N([H])C(=O)C4([H])N(C(=O)C([H])(N([H])C(=O)C5(F)C([H])([H])C5([H])[H])C(C([H])([H])[H])(C([H])([H])[H])C([H])([H])[H])C([H])([H])C([H])(O[H])C4([H])[H])c([H])c3C([H])([H])[H])C([H])([H])C2([H])[H])c1[H]

>  <smiles>  (169) 
[H]Oc1c([H])c([H])c([H])c([H])c1-c1nnc(N([H])[H])c(N2C([H])([H])C([H])([H])N(c3c([H])c(C([H])([H])[H])c(C([H])([H])Oc4c([H])c(-c5sc([H])nc5C([H])([H])[H])c([H])c([H])c4C([H])([H])N([H])C(=O)C4([H])N(C(=O)C([H])(N([H])C(=O)C5(F)C([H])([H])C5([H])[H])C(C([H])([H])[H])(C([H])([H])[H])C([H])([H])[H])C([H])([H])C([H])(O[H])C4([H])[H])c([H])c3C([H])([H])[H])C([H])([H])C2([H])[H])c1[H]

$$$$
169:0:0
     RDKit          3D

 72 79  0  0  1  0  0  0  0  0999 V2000
  -37.3700   13.5310  -23.7490 C   0  0  0  0  0  0  0  0  0  0  0  0
  -36.6880   13.4760  -22.5090 C   0  0  0  0  0  3  0  0  0  0  0  0
  -35.4280   12.8440  -22.3950 C   0  0  0  0  0  0  0  0  0  0  0  0
  -35.5410   12.2830  -24.7730 C   0  0  0  0  0  3  0  0  0  0  0  0
  -36.8100   12.8900  -24.8780 C   0  0  0  0  0  0  0  0  0  0  0  0
  -34.8520   12.2770  -23.5500 C   0  0  0  0  0  3  0  0  0  0  0  0
  -35.1760   12.3090  -19.8860 C   0  0  0  0  0  0  0  0  0  0  0  0
  -33.0100   12.7180  -19.3600 C   0  0  0  0  0  3  0  0  0  0  0  0
  -34.7220   12.7470  -21.1150 C   0  0  0  0  0  0  0  0  0  0  0  0
  -34.1890   12.2980  -18.8980 N   0  0  0  0  0  0  0  0  0  0  0  0
  -33.0270   13.1790  -21.0510 S   0  0  0  0  0  0  0  0  0  0  0  0
  -36.5450   11.8300  -19.5220 C   0  0  0  0  0  1  0  0  0  0  0  0
  -37.5830   12.8480  -26.1930 C   0  0  0  0  0  2  0  0  0  0  0  0
  -36.2230   13.6620  -28.1030 C   0  0  0  0  0  0  0  0  0  0  0  0
  -36.4860   14.8530  -27.9320 O   0  0  0  0  0  0  0  0  0  0  0  0
  -36.7460   12.6760  -27.3700 N   0  0  0  0  0  0  0  0  0  0  0  0
  -36.4910   11.7260  -27.6050 H   0  0  0  0  0  0  0  0  0  0  0  0
  -36.1810   14.4210  -31.1230 C   0  0  0  0  0  0  0  0  0  0  0  0
  -35.1850   13.2350  -29.1520 C   0  0  0  0  0  3  0  0  0  0  0  0
  -33.7210   14.4740  -30.6200 C   0  0  0  0  0  2  0  0  0  0  0  0
  -35.1150   14.1120  -30.3370 N   0  0  0  0  0  0  0  0  0  0  0  0
  -37.3030   13.9500  -30.9070 O   0  0  0  0  0  0  0  0  0  0  0  0
  -33.7850   13.2830  -28.5200 C   0  0  0  0  0  2  0  0  0  0  0  0
  -32.8610   13.6520  -29.6620 C   0  0  0  0  0  3  0  0  0  0  0  0
  -32.4220   12.4870  -30.3410 O   0  0  0  0  0  0  0  0  0  0  0  0
  -33.1870   12.0240  -30.6700 H   0  0  0  0  0  0  0  0  0  0  0  0
  -36.0020   15.3510  -32.3520 C   0  0  0  0  0  3  0  0  0  0  0  0
  -35.8350   17.4380  -30.8380 C   0  0  0  0  0  1  0  0  0  0  0  0
  -36.0270   17.7070  -33.2960 C   0  0  0  0  0  1  0  0  0  0  0  0
  -38.0100   16.9550  -31.9660 C   0  0  0  0  0  1  0  0  0  0  0  0
  -36.4780   16.8300  -32.1070 C   0  0  1  0  0  0  0  0  0  0  0  0
  -36.7480   14.7440  -33.4680 N   0  0  0  0  0  0  0  0  0  0  0  0
  -36.2300   14.2260  -34.5900 C   0  0  0  0  0  0  0  0  0  0  0  0
  -35.0220   14.2750  -34.8380 O   0  0  0  0  0  0  0  0  0  0  0  0
  -37.7400   14.6050  -33.3280 H   0  0  0  0  0  0  0  0  0  0  0  0
  -37.2160   13.5770  -35.5240 C   0  0  1  0  0  0  0  0  0  0  0  0
  -38.4800   13.4100  -34.9790 F   0  0  0  0  0  0  0  0  0  0  0  0
  -37.1440   13.8740  -37.0040 C   0  0  0  0  0  2  0  0  0  0  0  0
  -36.7500   12.5080  -36.4880 C   0  0  0  0  0  2  0  0  0  0  0  0
  -38.4920   14.3190  -23.8950 O   0  0  0  0  0  0  0  0  0  0  0  0
  -38.0570   15.6340  -24.2970 C   0  0  0  0  0  2  0  0  0  0  0  0
  -38.4750   18.0370  -25.1190 C   0  0  0  0  0  2  0  0  0  0  0  0
  -39.6440   18.2300  -26.0870 C   0  0  0  0  0  3  0  0  0  0  0  0
  -39.0930   16.7200  -24.6300 C   0  0  0  0  0  3  0  0  0  0  0  0
  -40.0170   16.7250  -25.8910 C   0  0  2  0  0  0  0  0  0  0  0  0
  -39.6590   15.7710  -27.0380 C   0  0  0  0  0  1  0  0  0  0  0  0
  -41.4950   16.4660  -25.5950 C   0  0  0  0  0  1  0  0  0  0  0  0
  -40.2160   19.1570  -28.3760 N   0  0  0  0  0  0  0  0  0  0  0  0
  -39.9170   19.4540  -29.7950 C   0  0  0  0  0  2  0  0  0  0  0  0
  -41.1710   19.4690  -30.7160 C   0  0  0  0  0  2  0  0  0  0  0  0
  -42.2270   18.6070  -30.1870 N   0  0  0  0  0  0  0  0  0  0  0  0
  -42.6530   18.8240  -28.8100 C   0  0  0  0  0  2  0  0  0  0  0  0
  -41.5760   19.5400  -27.9720 C   0  0  0  0  0  2  0  0  0  0  0  0
  -39.2640   18.6890  -27.5300 C   0  0  0  0  0  0  0  0  0  0  0  0
  -38.0840   18.6140  -27.8870 O   0  0  0  0  0  0  0  0  0  0  0  0
  -43.1490   18.0280  -31.0880 C   0  0  0  0  0  0  0  0  0  0  0  0
  -44.4530   18.5350  -31.2850 C   0  0  0  0  0  3  0  0  0  0  0  0
  -45.3320   17.8630  -32.1780 C   0  0  0  0  0  0  0  0  0  0  0  0
  -44.8990   16.7470  -32.8310 N   0  0  0  0  0  0  0  0  0  0  0  0
  -43.6740   16.2480  -32.6510 N   0  0  0  0  0  0  0  0  0  0  0  0
  -42.8190   16.8580  -31.8070 C   0  0  0  0  0  0  0  0  0  0  0  0
  -41.5920   16.2440  -31.6300 N   0  0  0  0  0  0  0  0  0  0  0  0
  -41.1310   16.5670  -30.7890 H   0  0  0  0  0  0  0  0  0  0  0  0
  -41.5870   15.2420  -31.7510 H   0  0  0  0  0  0  0  0  0  0  0  0
  -46.7440   18.3010  -32.4560 C   0  0  0  0  0  0  0  0  0  0  0  0
  -47.6580   17.6050  -33.3150 C   0  0  0  0  0  0  0  0  0  0  0  0
  -48.9750   18.0680  -33.5110 C   0  0  0  0  0  3  0  0  0  0  0  0
  -49.4310   19.2270  -32.8710 C   0  0  0  0  0  3  0  0  0  0  0  0
  -48.5610   19.9350  -32.0330 C   0  0  0  0  0  3  0  0  0  0  0  0
  -47.2440   19.4770  -31.8350 C   0  0  0  0  0  3  0  0  0  0  0  0
  -47.3300   16.4650  -33.9930 O   0  0  0  0  0  0  0  0  0  0  0  0
  -46.4170   16.2250  -33.8270 H   0  0  0  0  0  0  0  0  0  0  0  0
  1  2  1  0
  2  3  2  0
  3  9  1  0
  4  6  2  0
  5  4  1  0
  5  1  2  0
  6  3  1  0
  7 12  1  0
  7 10  1  0
  8 10  2  0
  9 11  1  0
  9  7  2  0
 11  8  1  0
 13  5  1  0
 14 15  2  0
 14 16  1  0
 16 13  1  0
 17 16  1  0
 18 22  2  0
 18 21  1  0
 19 23  1  0
 19 14  1  0
 20 21  1  0
 20 24  1  0
 21 19  1  0
 24 25  1  0
 24 23  1  0
 26 25  1  0
 27 31  1  0
 27 18  1  0
 31 29  1  6
 31 30  1  0
 31 28  1  0
 32 35  1  0
 32 27  1  0
 33 32  1  0
 34 33  2  0
 36 37  1  1
 36 33  1  0
 38 39  1  0
 38 36  1  0
 39 36  1  0
 40  1  1  0
 41 40  1  0
 42 44  1  0
 43 54  1  0
 43 45  1  0
 43 42  1  0
 44 41  1  0
 45 47  1  1
 45 44  1  0
 46 45  1  0
 48 53  1  0
 48 54  1  0
 49 48  1  0
 50 51  1  0
 50 49  1  0
 51 52  1  0
 52 53  1  0
 55 54  2  0
 56 51  1  0
 57 56  1  0
 58 57  2  0
 59 60  2  0
 59 58  1  0
 60 61  1  0
 61 62  1  0
 61 56  2  0
 62 63  1  0
 64 62  1  0
 65 58  1  0
 65 70  1  0
 66 65  2  0
 67 66  1  0
 67 68  2  0
 68 69  1  0
 69 70  2  0
 71 72  1  0
 71 66  1  0
M  ISO  4  40 101  41 101  48 100  54 100
M  END
>  <TORSDO>  (170) 
F 16

>  <SCORE>  (170) 
-14.361

>  <name>  (170) 
169

>  <ligand_id>  (170) 
169

>  <original_smiles>  (170) 
[H]Oc1c([H])c([H])c([H])c([H])c1-c1nnc(N([H])[H])c(N2C([H])([H])C([H])([H])N(C(=O)C3([H])C([H])([H])C([H])(C([H])([H])Oc4c([H])c(-c5sc([H])nc5C([H])([H])[H])c([H])c([H])c4C([H])([H])N([H])C(=O)C4([H])N(C(=O)C([H])(N([H])C(=O)C5(F)C([H])([H])C5([H])[H])C(C([H])([H])[H])(C([H])([H])[H])C([H])([H])[H])C([H])([H])C([H])(O[H])C4([H])[H])C3(C([H])([H])[H])C([H])([H])[H])C([H])([H])C2([H])[H])c1[H]

>  <smiles>  (170) 
[H]Oc1c([H])c([H])c([H])c([H])c1-c1nnc(N([H])[H])c(N2C([H])([H])C([H])([H])N(C(=O)C3([H])C([H])([H])C([H])(C([H])([H])Oc4c([H])c(-c5sc([H])nc5C([H])([H])[H])c([H])c([H])c4C([H])([H])N([H])C(=O)C4([H])N(C(=O)C([H])(N([H])C(=O)C5(F)C([H])([H])C5([H])[H])C(C([H])([H])[H])(C([H])([H])[H])C([H])([H])[H])C([H])([H])C([H])(O[H])C4([H])[H])C3(C([H])([H])[H])C([H])([H])[H])C([H])([H])C2([H])[H])c1[H]

$$$$
170:0:0
     RDKit          3D

 73 80  0  0  1  0  0  0  0  0999 V2000
  -37.4070   13.4760  -23.6820 C   0  0  0  0  0  0  0  0  0  0  0  0
  -36.7110   13.4070  -22.4510 C   0  0  0  0  0  3  0  0  0  0  0  0
  -35.4430   12.7940  -22.3610 C   0  0  0  0  0  0  0  0  0  0  0  0
  -35.5450   12.3250  -24.7590 C   0  0  0  0  0  3  0  0  0  0  0  0
  -36.8260   12.9170  -24.8430 C   0  0  0  0  0  0  0  0  0  0  0  0
  -34.8610   12.2690  -23.5340 C   0  0  0  0  0  3  0  0  0  0  0  0
  -35.2360   12.2140  -19.8560 C   0  0  0  0  0  0  0  0  0  0  0  0
  -33.0670   12.5630  -19.3040 C   0  0  0  0  0  3  0  0  0  0  0  0
  -34.7560   12.6520  -21.0760 C   0  0  0  0  0  0  0  0  0  0  0  0
  -34.2600   12.1690  -18.8570 N   0  0  0  0  0  0  0  0  0  0  0  0
  -33.0530   13.0400  -20.9890 S   0  0  0  0  0  0  0  0  0  0  0  0
  -36.6230   11.7720  -19.5040 C   0  0  0  0  0  1  0  0  0  0  0  0
  -37.6000   12.9320  -26.1620 C   0  0  0  0  0  2  0  0  0  0  0  0
  -36.2030   13.7000  -28.0610 C   0  0  0  0  0  0  0  0  0  0  0  0
  -36.4480   14.8950  -27.8840 O   0  0  0  0  0  0  0  0  0  0  0  0
  -36.7630   12.7250  -27.3370 N   0  0  0  0  0  0  0  0  0  0  0  0
  -36.5270   11.7690  -27.5670 H   0  0  0  0  0  0  0  0  0  0  0  0
  -36.1410   14.4460  -31.0770 C   0  0  0  0  0  0  0  0  0  0  0  0
  -35.1630   13.2580  -29.1020 C   0  0  0  0  0  3  0  0  0  0  0  0
  -33.6840   14.4870  -30.5670 C   0  0  0  0  0  2  0  0  0  0  0  0
  -35.0810   14.1330  -30.2870 N   0  0  0  0  0  0  0  0  0  0  0  0
  -37.2660   13.9780  -30.8700 O   0  0  0  0  0  0  0  0  0  0  0  0
  -33.7610   13.2930  -28.4680 C   0  0  0  0  0  2  0  0  0  0  0  0
  -32.8320   13.6580  -29.6080 C   0  0  0  0  0  3  0  0  0  0  0  0
  -32.3990   12.4900  -30.2880 O   0  0  0  0  0  0  0  0  0  0  0  0
  -33.1660   12.0240  -30.6060 H   0  0  0  0  0  0  0  0  0  0  0  0
  -35.9530   15.3750  -32.3060 C   0  0  0  0  0  3  0  0  0  0  0  0
  -35.7170   17.4750  -30.8170 C   0  0  0  0  0  1  0  0  0  0  0  0
  -36.0020   17.7210  -33.2710 C   0  0  0  0  0  1  0  0  0  0  0  0
  -37.9360   16.9900  -31.8590 C   0  0  0  0  0  1  0  0  0  0  0  0
  -36.4100   16.8590  -32.0560 C   0  0  1  0  0  0  0  0  0  0  0  0
  -36.7110   14.7830  -33.4200 N   0  0  0  0  0  0  0  0  0  0  0  0
  -36.2020   14.2320  -34.5310 C   0  0  0  0  0  0  0  0  0  0  0  0
  -34.9910   14.2350  -34.7690 O   0  0  0  0  0  0  0  0  0  0  0  0
  -37.7070   14.6780  -33.2850 H   0  0  0  0  0  0  0  0  0  0  0  0
  -37.2020   13.6050  -35.4660 C   0  0  1  0  0  0  0  0  0  0  0  0
  -38.4770   13.4970  -34.9340 F   0  0  0  0  0  0  0  0  0  0  0  0
  -37.1010   13.8760  -36.9490 C   0  0  0  0  0  2  0  0  0  0  0  0
  -36.7650   12.5040  -36.4080 C   0  0  0  0  0  2  0  0  0  0  0  0
  -38.6810   13.9870  -23.7660 O   0  0  0  0  0  0  0  0  0  0  0  0
  -38.9330   15.2730  -23.2050 C   0  0  0  0  0  2  0  0  0  0  0  0
  -39.9080   16.9070  -26.5100 C   0  0  0  0  0  3  0  0  0  0  0  0
  -39.8800   16.0340  -25.4090 C   0  0  0  0  0  3  0  0  0  0  0  0
  -38.3010   18.3600  -25.3870 C   0  0  0  0  0  3  0  0  0  0  0  0
  -39.1030   18.0670  -26.5120 C   0  0  0  0  0  0  0  0  0  0  0  0
  -39.0330   16.2990  -24.3130 C   0  0  0  0  0  0  0  0  0  0  0  0
  -38.2660   17.4820  -24.2890 C   0  0  0  0  0  0  0  0  0  0  0  0
  -37.4610   17.7640  -23.2350 F   0  0  0  0  0  0  0  0  0  0  0  0
  -40.0480   19.1850  -28.4850 N   0  0  0  0  0  0  0  0  0  0  0  0
  -39.8630   19.5230  -29.9030 C   0  0  0  0  0  2  0  0  0  0  0  0
  -41.1600   19.4940  -30.7370 C   0  0  0  0  0  2  0  0  0  0  0  0
  -42.1490   18.5950  -30.1560 N   0  0  0  0  0  0  0  0  0  0  0  0
  -42.5210   18.8130  -28.7600 C   0  0  0  0  0  2  0  0  0  0  0  0
  -41.3860   19.4830  -27.9460 C   0  0  0  0  0  2  0  0  0  0  0  0
  -38.9510   18.8840  -27.7580 C   0  0  0  0  0  0  0  0  0  0  0  0
  -37.8080   19.1790  -28.1250 O   0  0  0  0  0  0  0  0  0  0  0  0
  -43.0880   18.0130  -31.0360 C   0  0  0  0  0  0  0  0  0  0  0  0
  -44.3880   18.5290  -31.2320 C   0  0  0  0  0  3  0  0  0  0  0  0
  -45.2690   17.8620  -32.1290 C   0  0  0  0  0  0  0  0  0  0  0  0
  -44.8420   16.7440  -32.7810 N   0  0  0  0  0  0  0  0  0  0  0  0
  -43.6200   16.2360  -32.6000 N   0  0  0  0  0  0  0  0  0  0  0  0
  -42.7610   16.8440  -31.7590 C   0  0  0  0  0  0  0  0  0  0  0  0
  -41.5290   16.2380  -31.5920 N   0  0  0  0  0  0  0  0  0  0  0  0
  -41.0510   16.5790  -30.7680 H   0  0  0  0  0  0  0  0  0  0  0  0
  -41.5100   15.2350  -31.7030 H   0  0  0  0  0  0  0  0  0  0  0  0
  -46.6790   18.3070  -32.4070 C   0  0  0  0  0  0  0  0  0  0  0  0
  -47.6090   17.5940  -33.2340 C   0  0  0  0  0  0  0  0  0  0  0  0
  -48.9230   18.0640  -33.4310 C   0  0  0  0  0  3  0  0  0  0  0  0
  -49.3610   19.2490  -32.8230 C   0  0  0  0  0  3  0  0  0  0  0  0
  -48.4720   19.9750  -32.0180 C   0  0  0  0  0  3  0  0  0  0  0  0
  -47.1600   19.5090  -31.8200 C   0  0  0  0  0  3  0  0  0  0  0  0
  -47.2980   16.4290  -33.8760 O   0  0  0  0  0  0  0  0  0  0  0  0
  -46.3870   16.1880  -33.7090 H   0  0  0  0  0  0  0  0  0  0  0  0
  1  2  1  0
  2  3  2  0
  3  9  1  0
  4  6  2  0
  5  4  1  0
  5  1  2  0
  6  3  1  0
  7 12  1  0
  7 10  1  0
  8 10  2  0
  9 11  1  0
  9  7  2  0
 11  8  1  0
 13  5  1  0
 14 15  2  0
 14 16  1  0
 16 13  1  0
 17 16  1  0
 18 22  2  0
 18 21  1  0
 19 23  1  0
 19 14  1  0
 20 21  1  0
 20 24  1  0
 21 19  1  0
 24 25  1  0
 24 23  1  0
 26 25  1  0
 27 31  1  0
 27 18  1  0
 31 29  1  6
 31 30  1  0
 31 28  1  0
 32 35  1  0
 32 27  1  0
 33 32  1  0
 34 33  2  0
 36 37  1  1
 36 33  1  0
 38 39  1  0
 38 36  1  0
 39 36  1  0
 40  1  1  0
 40 41  1  0
 42 43  1  0
 43 46  2  0
 44 47  2  0
 45 42  2  0
 45 44  1  0
 46 47  1  0
 46 41  1  0
 47 48  1  0
 49 54  1  0
 49 55  1  0
 50 49  1  0
 51 52  1  0
 51 50  1  0
 52 53  1  0
 53 54  1  0
 55 45  1  0
 56 55  2  0
 57 52  1  0
 58 57  1  0
 59 58  2  0
 60 61  2  0
 60 59  1  0
 61 62  1  0
 62 63  1  0
 62 57  2  0
 63 64  1  0
 65 63  1  0
 66 59  1  0
 66 71  1  0
 67 66  2  0
 68 67  1  0
 68 69  2  0
 69 70  1  0
 70 71  2  0
 72 73  1  0
 72 67  1  0
M  ISO  4  40 101  41 101  49 100  55 100
M  END
>  <TORSDO>  (171) 
F 16

>  <SCORE>  (171) 
-14.383

>  <name>  (171) 
170

>  <ligand_id>  (171) 
170

>  <original_smiles>  (171) 
[H]Oc1c([H])c([H])c([H])c([H])c1-c1nnc(N([H])[H])c(N2C([H])([H])C([H])([H])N(C(=O)c3c([H])c([H])c(C([H])([H])Oc4c([H])c(-c5sc([H])nc5C([H])([H])[H])c([H])c([H])c4C([H])([H])N([H])C(=O)C4([H])N(C(=O)C([H])(N([H])C(=O)C5(F)C([H])([H])C5([H])[H])C(C([H])([H])[H])(C([H])([H])[H])C([H])([H])[H])C([H])([H])C([H])(O[H])C4([H])[H])c(F)c3[H])C([H])([H])C2([H])[H])c1[H]

>  <smiles>  (171) 
[H]Oc1c([H])c([H])c([H])c([H])c1-c1nnc(N([H])[H])c(N2C([H])([H])C([H])([H])N(C(=O)c3c([H])c([H])c(C([H])([H])Oc4c([H])c(-c5sc([H])nc5C([H])([H])[H])c([H])c([H])c4C([H])([H])N([H])C(=O)C4([H])N(C(=O)C([H])(N([H])C(=O)C5(F)C([H])([H])C5([H])[H])C(C([H])([H])[H])(C([H])([H])[H])C([H])([H])[H])C([H])([H])C([H])(O[H])C4([H])[H])c(F)c3[H])C([H])([H])C2([H])[H])c1[H]

$$$$
171:0:0
     RDKit          3D

 72 79  0  0  1  0  0  0  0  0999 V2000
  -37.3790   13.5380  -23.7440 C   0  0  0  0  0  0  0  0  0  0  0  0
  -36.7090   13.4560  -22.4960 C   0  0  0  0  0  3  0  0  0  0  0  0
  -35.4640   12.7920  -22.3760 C   0  0  0  0  0  0  0  0  0  0  0  0
  -35.5680   12.2680  -24.7650 C   0  0  0  0  0  3  0  0  0  0  0  0
  -36.8250   12.9050  -24.8750 C   0  0  0  0  0  0  0  0  0  0  0  0
  -34.8920   12.2230  -23.5330 C   0  0  0  0  0  3  0  0  0  0  0  0
  -35.2450   12.2180  -19.8670 C   0  0  0  0  0  0  0  0  0  0  0  0
  -33.0700   12.5520  -19.3240 C   0  0  0  0  0  3  0  0  0  0  0  0
  -34.7720   12.6530  -21.0890 C   0  0  0  0  0  0  0  0  0  0  0  0
  -34.2640   12.1660  -18.8730 N   0  0  0  0  0  0  0  0  0  0  0  0
  -33.0620   13.0260  -21.0120 S   0  0  0  0  0  0  0  0  0  0  0  0
  -36.6330   11.7830  -19.5110 C   0  0  0  0  0  1  0  0  0  0  0  0
  -37.6000   12.9020  -26.1890 C   0  0  0  0  0  2  0  0  0  0  0  0
  -36.2110   13.6870  -28.0770 C   0  0  0  0  0  0  0  0  0  0  0  0
  -36.4660   14.8800  -27.9000 O   0  0  0  0  0  0  0  0  0  0  0  0
  -36.7590   12.7050  -27.3590 N   0  0  0  0  0  0  0  0  0  0  0  0
  -36.5120   11.7510  -27.5890 H   0  0  0  0  0  0  0  0  0  0  0  0
  -36.1580   14.4390  -31.0900 C   0  0  0  0  0  0  0  0  0  0  0  0
  -35.1700   13.2510  -29.1210 C   0  0  0  0  0  3  0  0  0  0  0  0
  -33.7000   14.4850  -30.5850 C   0  0  0  0  0  2  0  0  0  0  0  0
  -35.0950   14.1290  -30.3040 N   0  0  0  0  0  0  0  0  0  0  0  0
  -37.2820   13.9660  -30.8800 O   0  0  0  0  0  0  0  0  0  0  0  0
  -33.7710   13.2910  -28.4850 C   0  0  0  0  0  2  0  0  0  0  0  0
  -32.8440   13.6580  -29.6260 C   0  0  0  0  0  3  0  0  0  0  0  0
  -32.4110   12.4900  -30.3050 O   0  0  0  0  0  0  0  0  0  0  0  0
  -33.1780   12.0230  -30.6220 H   0  0  0  0  0  0  0  0  0  0  0  0
  -35.9760   15.3700  -32.3170 C   0  0  0  0  0  3  0  0  0  0  0  0
  -35.7850   17.4650  -30.8150 C   0  0  0  0  0  1  0  0  0  0  0  0
  -36.0290   17.7190  -33.2720 C   0  0  0  0  0  1  0  0  0  0  0  0
  -37.9810   16.9670  -31.8970 C   0  0  0  0  0  1  0  0  0  0  0  0
  -36.4510   16.8490  -32.0690 C   0  0  1  0  0  0  0  0  0  0  0  0
  -36.7220   14.7680  -33.4360 N   0  0  0  0  0  0  0  0  0  0  0  0
  -36.2000   14.2290  -34.5470 C   0  0  0  0  0  0  0  0  0  0  0  0
  -34.9890   14.2550  -34.7820 O   0  0  0  0  0  0  0  0  0  0  0  0
  -37.7170   14.6460  -33.3020 H   0  0  0  0  0  0  0  0  0  0  0  0
  -37.1870   13.5880  -35.4870 C   0  0  1  0  0  0  0  0  0  0  0  0
  -38.4600   13.4500  -34.9550 F   0  0  0  0  0  0  0  0  0  0  0  0
  -37.0910   13.8670  -36.9690 C   0  0  0  0  0  2  0  0  0  0  0  0
  -36.7260   12.5000  -36.4320 C   0  0  0  0  0  2  0  0  0  0  0  0
  -38.5590   14.2350  -23.8910 O   0  0  0  0  0  0  0  0  0  0  0  0
  -38.3950   15.6660  -23.9340 C   0  0  0  0  0  2  0  0  0  0  0  0
  -37.8480   17.3200  -25.8250 C   0  0  0  0  0  3  0  0  0  0  0  0
  -40.3820   17.0470  -26.9550 C   0  0  0  0  0  3  0  0  0  0  0  0
  -38.2310   18.1590  -26.9060 C   0  0  0  0  0  0  0  0  0  0  0  0
  -38.7380   16.3720  -25.2640 C   0  0  0  0  0  0  0  0  0  0  0  0
  -39.5380   18.0710  -27.4570 C   0  0  0  0  0  0  0  0  0  0  0  0
  -40.0000   16.2180  -25.8740 C   0  0  0  0  0  0  0  0  0  0  0  0
  -37.2520   19.2120  -27.3980 C   0  0  0  0  0  1  0  0  0  0  0  0
  -40.8880   15.3190  -25.3840 F   0  0  0  0  0  0  0  0  0  0  0  0
  -40.0490   19.0740  -28.3290 N   0  0  0  0  0  0  0  0  0  0  0  0
  -39.6710   19.2310  -29.7460 C   0  0  0  0  0  2  0  0  0  0  0  0
  -40.9040   19.3380  -30.7060 C   0  0  0  0  0  2  0  0  0  0  0  0
  -42.0650   18.6230  -30.1680 N   0  0  0  0  0  0  0  0  0  0  0  0
  -42.5010   18.9780  -28.8190 C   0  0  0  0  0  2  0  0  0  0  0  0
  -41.3620   19.6080  -27.9760 C   0  0  0  0  0  2  0  0  0  0  0  0
  -42.9910   18.0310  -31.0570 C   0  0  0  0  0  0  0  0  0  0  0  0
  -44.2960   18.5370  -31.2470 C   0  0  0  0  0  3  0  0  0  0  0  0
  -45.1790   17.8630  -32.1330 C   0  0  0  0  0  0  0  0  0  0  0  0
  -44.7550   16.7400  -32.7790 N   0  0  0  0  0  0  0  0  0  0  0  0
  -43.5320   16.2340  -32.5960 N   0  0  0  0  0  0  0  0  0  0  0  0
  -42.6680   16.8530  -31.7670 C   0  0  0  0  0  0  0  0  0  0  0  0
  -41.4410   16.2380  -31.5910 N   0  0  0  0  0  0  0  0  0  0  0  0
  -40.9660   16.5790  -30.7640 H   0  0  0  0  0  0  0  0  0  0  0  0
  -41.4320   15.2330  -31.6940 H   0  0  0  0  0  0  0  0  0  0  0  0
  -46.5900   18.3090  -32.4080 C   0  0  0  0  0  0  0  0  0  0  0  0
  -47.5190   17.6010  -33.2400 C   0  0  0  0  0  0  0  0  0  0  0  0
  -48.8330   18.0720  -33.4350 C   0  0  0  0  0  3  0  0  0  0  0  0
  -49.2710   19.2540  -32.8220 C   0  0  0  0  0  3  0  0  0  0  0  0
  -48.3830   19.9750  -32.0120 C   0  0  0  0  0  3  0  0  0  0  0  0
  -47.0710   19.5080  -31.8150 C   0  0  0  0  0  3  0  0  0  0  0  0
  -47.2080   16.4390  -33.8870 O   0  0  0  0  0  0  0  0  0  0  0  0
  -46.2960   16.1980  -33.7200 H   0  0  0  0  0  0  0  0  0  0  0  0
  1  2  1  0
  2  3  2  0
  3  9  1  0
  4  6  2  0
  5  4  1  0
  5  1  2  0
  6  3  1  0
  7 12  1  0
  7 10  1  0
  8 10  2  0
  9 11  1  0
  9  7  2  0
 11  8  1  0
 13  5  1  0
 14 15  2  0
 14 16  1  0
 16 13  1  0
 17 16  1  0
 18 22  2  0
 18 21  1  0
 19 23  1  0
 19 14  1  0
 20 21  1  0
 20 24  1  0
 21 19  1  0
 24 25  1  0
 24 23  1  0
 26 25  1  0
 27 31  1  0
 27 18  1  0
 31 29  1  6
 31 30  1  0
 31 28  1  0
 32 35  1  0
 32 27  1  0
 33 32  1  0
 34 33  2  0
 36 37  1  1
 36 33  1  0
 38 39  1  0
 38 36  1  0
 39 36  1  0
 40  1  1  0
 41 40  1  0
 42 45  1  0
 43 47  1  0
 44 42  2  0
 45 41  1  0
 46 43  2  0
 46 44  1  0
 47 49  1  0
 47 45  2  0
 48 44  1  0
 50 55  1  0
 50 46  1  0
 51 50  1  0
 52 53  1  0
 52 51  1  0
 53 54  1  0
 54 55  1  0
 56 53  1  0
 57 56  1  0
 58 57  2  0
 59 60  2  0
 59 58  1  0
 60 61  1  0
 61 62  1  0
 61 56  2  0
 62 63  1  0
 64 62  1  0
 65 58  1  0
 65 70  1  0
 66 65  2  0
 67 66  1  0
 67 68  2  0
 68 69  1  0
 69 70  2  0
 71 72  1  0
 71 66  1  0
M  ISO  4  40 101  41 101  46 100  50 100
M  END
>  <TORSDO>  (172) 
F 16

>  <SCORE>  (172) 
-14.411

>  <name>  (172) 
171

>  <ligand_id>  (172) 
171

>  <original_smiles>  (172) 
[H]Oc1c([H])c([H])c([H])c([H])c1-c1nnc(N([H])[H])c(N2C([H])([H])C([H])([H])N(c3c([H])c(F)c(C([H])([H])Oc4c([H])c(-c5sc([H])nc5C([H])([H])[H])c([H])c([H])c4C([H])([H])N([H])C(=O)C4([H])N(C(=O)C([H])(N([H])C(=O)C5(F)C([H])([H])C5([H])[H])C(C([H])([H])[H])(C([H])([H])[H])C([H])([H])[H])C([H])([H])C([H])(O[H])C4([H])[H])c([H])c3C([H])([H])[H])C([H])([H])C2([H])[H])c1[H]

>  <smiles>  (172) 
[H]Oc1c([H])c([H])c([H])c([H])c1-c1nnc(N([H])[H])c(N2C([H])([H])C([H])([H])N(c3c([H])c(F)c(C([H])([H])Oc4c([H])c(-c5sc([H])nc5C([H])([H])[H])c([H])c([H])c4C([H])([H])N([H])C(=O)C4([H])N(C(=O)C([H])(N([H])C(=O)C5(F)C([H])([H])C5([H])[H])C(C([H])([H])[H])(C([H])([H])[H])C([H])([H])[H])C([H])([H])C([H])(O[H])C4([H])[H])c([H])c3C([H])([H])[H])C([H])([H])C2([H])[H])c1[H]

$$$$
172:0:0
     RDKit          3D

 75 82  0  0  1  0  0  0  0  0999 V2000
  -37.3760   13.5150  -23.7270 C   0  0  0  0  0  0  0  0  0  0  0  0
  -36.6710   13.4830  -22.4940 C   0  0  0  0  0  3  0  0  0  0  0  0
  -35.3960   12.8790  -22.3920 C   0  0  0  0  0  0  0  0  0  0  0  0
  -35.5030   12.3320  -24.7690 C   0  0  0  0  0  3  0  0  0  0  0  0
  -36.7830   12.9230  -24.8680 C   0  0  0  0  0  0  0  0  0  0  0  0
  -34.8140   12.3220  -23.5470 C   0  0  0  0  0  3  0  0  0  0  0  0
  -35.1450   12.2830  -19.8920 C   0  0  0  0  0  0  0  0  0  0  0  0
  -32.9850   12.7150  -19.3610 C   0  0  0  0  0  3  0  0  0  0  0  0
  -34.6980   12.7590  -21.1090 C   0  0  0  0  0  0  0  0  0  0  0  0
  -34.1540   12.2610  -18.9060 N   0  0  0  0  0  0  0  0  0  0  0  0
  -33.0130   13.2220  -21.0360 S   0  0  0  0  0  0  0  0  0  0  0  0
  -36.5060   11.7740  -19.5370 C   0  0  0  0  0  1  0  0  0  0  0  0
  -37.5550   12.8690  -26.1870 C   0  0  0  0  0  2  0  0  0  0  0  0
  -36.2000   13.6860  -28.1100 C   0  0  0  0  0  0  0  0  0  0  0  0
  -36.5000   14.8740  -27.9700 O   0  0  0  0  0  0  0  0  0  0  0  0
  -36.6960   12.7060  -27.3530 N   0  0  0  0  0  0  0  0  0  0  0  0
  -36.3730   11.7670  -27.5470 H   0  0  0  0  0  0  0  0  0  0  0  0
  -36.1480   14.4120  -31.1330 C   0  0  0  0  0  0  0  0  0  0  0  0
  -35.1540   13.2500  -29.1500 C   0  0  0  0  0  3  0  0  0  0  0  0
  -33.6880   14.4600  -30.6390 C   0  0  0  0  0  2  0  0  0  0  0  0
  -35.0840   14.1090  -30.3460 N   0  0  0  0  0  0  0  0  0  0  0  0
  -37.2720   13.9390  -30.9190 O   0  0  0  0  0  0  0  0  0  0  0  0
  -33.7560   13.3090  -28.5150 C   0  0  0  0  0  2  0  0  0  0  0  0
  -32.8300   13.6610  -29.6610 C   0  0  0  0  0  3  0  0  0  0  0  0
  -32.3780   12.4880  -30.3170 O   0  0  0  0  0  0  0  0  0  0  0  0
  -33.1360   11.9960  -30.6180 H   0  0  0  0  0  0  0  0  0  0  0  0
  -35.9700   15.3350  -32.3650 C   0  0  0  0  0  3  0  0  0  0  0  0
  -35.8370   17.4250  -30.8450 C   0  0  0  0  0  1  0  0  0  0  0  0
  -35.9920   17.6950  -33.3060 C   0  0  0  0  0  1  0  0  0  0  0  0
  -37.9930   16.9330  -32.0080 C   0  0  0  0  0  1  0  0  0  0  0  0
  -36.4580   16.8140  -32.1270 C   0  0  1  0  0  0  0  0  0  0  0  0
  -36.7090   14.7200  -33.4820 N   0  0  0  0  0  0  0  0  0  0  0  0
  -36.1820   14.2060  -34.6030 C   0  0  0  0  0  0  0  0  0  0  0  0
  -34.9720   14.2700  -34.8470 O   0  0  0  0  0  0  0  0  0  0  0  0
  -37.6990   14.5650  -33.3400 H   0  0  0  0  0  0  0  0  0  0  0  0
  -37.1540   13.5360  -35.5350 C   0  0  1  0  0  0  0  0  0  0  0  0
  -38.4060   13.3270  -34.9800 F   0  0  0  0  0  0  0  0  0  0  0  0
  -37.1080   13.8350  -37.0170 C   0  0  0  0  0  2  0  0  0  0  0  0
  -36.6500   12.4870  -36.5020 C   0  0  0  0  0  2  0  0  0  0  0  0
  -38.6670   13.9900  -23.8430 O   0  0  0  0  0  0  0  0  0  0  0  0
  -39.0280   15.2510  -23.2760 C   0  0  0  0  0  2  0  0  0  0  0  0
  -39.7080   15.9260  -25.6040 C   0  0  0  0  0  3  0  0  0  0  0  0
  -39.2310   18.1370  -26.5440 C   0  0  0  0  0  0  0  0  0  0  0  0
  -39.1800   16.3120  -24.3600 C   0  0  0  0  0  0  0  0  0  0  0  0
  -39.6560   16.7870  -26.7100 C   0  0  0  0  0  0  0  0  0  0  0  0
  -38.8240   18.5690  -25.2510 C   0  0  0  0  0  0  0  0  0  0  0  0
  -38.7600   17.6490  -24.1770 C   0  0  0  0  0  0  0  0  0  0  0  0
  -39.9820   16.0520  -28.2460 Cl  0  0  0  0  0  0  0  0  0  0  0  0
  -38.3380   20.2120  -24.9510 Cl  0  0  0  0  0  0  0  0  0  0  0  0
  -38.1030   18.1680  -22.6580 Cl  0  0  0  0  0  0  0  0  0  0  0  0
  -40.0700   19.2570  -28.5560 N   0  0  0  0  0  0  0  0  0  0  0  0
  -39.8130   19.4550  -29.9890 C   0  0  0  0  0  2  0  0  0  0  0  0
  -41.0860   19.4270  -30.8630 C   0  0  0  0  0  2  0  0  0  0  0  0
  -42.1370   18.5970  -30.2770 N   0  0  0  0  0  0  0  0  0  0  0  0
  -42.4650   18.7180  -28.8590 C   0  0  0  0  0  2  0  0  0  0  0  0
  -41.4300   19.5760  -28.1130 C   0  0  0  0  0  2  0  0  0  0  0  0
  -39.0310   19.0450  -27.7310 C   0  0  0  0  0  0  0  0  0  0  0  0
  -37.9040   19.4890  -27.9860 O   0  0  0  0  0  0  0  0  0  0  0  0
  -43.0790   18.0120  -31.1480 C   0  0  0  0  0  0  0  0  0  0  0  0
  -44.3790   18.5310  -31.3080 C   0  0  0  0  0  3  0  0  0  0  0  0
  -45.2790   17.8920  -32.2070 C   0  0  0  0  0  0  0  0  0  0  0  0
  -44.8590   16.7980  -32.9050 N   0  0  0  0  0  0  0  0  0  0  0  0
  -43.6320   16.2910  -32.7650 N   0  0  0  0  0  0  0  0  0  0  0  0
  -42.7580   16.8650  -31.9110 C   0  0  0  0  0  0  0  0  0  0  0  0
  -41.5250   16.2430  -31.8250 N   0  0  0  0  0  0  0  0  0  0  0  0
  -40.8330   16.5600  -31.1600 H   0  0  0  0  0  0  0  0  0  0  0  0
  -41.2540   15.5280  -32.4880 H   0  0  0  0  0  0  0  0  0  0  0  0
  -46.6930   18.3430  -32.4480 C   0  0  0  0  0  0  0  0  0  0  0  0
  -47.6220   17.6790  -33.3190 C   0  0  0  0  0  0  0  0  0  0  0  0
  -48.9430   18.1490  -33.4740 C   0  0  0  0  0  3  0  0  0  0  0  0
  -49.3870   19.2800  -32.7780 C   0  0  0  0  0  3  0  0  0  0  0  0
  -48.5000   19.9580  -31.9320 C   0  0  0  0  0  3  0  0  0  0  0  0
  -47.1820   19.4950  -31.7780 C   0  0  0  0  0  3  0  0  0  0  0  0
  -47.3050   16.5640  -34.0430 O   0  0  0  0  0  0  0  0  0  0  0  0
  -46.3910   16.3160  -33.9020 H   0  0  0  0  0  0  0  0  0  0  0  0
  1  2  1  0
  2  3  2  0
  3  9  1  0
  4  6  2  0
  5  4  1  0
  5  1  2  0
  6  3  1  0
  7 12  1  0
  7 10  1  0
  8 10  2  0
  9 11  1  0
  9  7  2  0
 11  8  1  0
 13  5  1  0
 14 15  2  0
 14 16  1  0
 16 13  1  0
 17 16  1  0
 18 22  2  0
 18 21  1  0
 19 23  1  0
 19 14  1  0
 20 21  1  0
 20 24  1  0
 21 19  1  0
 24 25  1  0
 24 23  1  0
 26 25  1  0
 27 31  1  0
 27 18  1  0
 31 29  1  6
 31 30  1  0
 31 28  1  0
 32 35  1  0
 32 27  1  0
 33 32  1  0
 34 33  2  0
 36 37  1  1
 36 33  1  0
 38 39  1  0
 38 36  1  0
 39 36  1  0
 40  1  1  0
 40 41  1  0
 42 44  1  0
 43 46  2  0
 44 47  2  0
 44 41  1  0
 45 43  1  0
 45 42  2  0
 46 49  1  0
 46 47  1  0
 47 50  1  0
 48 45  1  0
 51 56  1  0
 51 57  1  0
 52 51  1  0
 53 54  1  0
 53 52  1  0
 54 55  1  0
 55 56  1  0
 57 43  1  0
 58 57  2  0
 59 54  1  0
 60 59  1  0
 61 60  2  0
 62 63  2  0
 62 61  1  0
 63 64  1  0
 64 65  1  0
 64 59  2  0
 65 66  1  0
 67 65  1  0
 68 61  1  0
 68 73  1  0
 69 68  2  0
 70 69  1  0
 70 71  2  0
 71 72  1  0
 72 73  2  0
 74 75  1  0
 74 69  1  0
M  ISO  4  40 101  41 101  51 100  57 100
M  END
>  <TORSDO>  (173) 
F 16

>  <SCORE>  (173) 
-14.525

>  <name>  (173) 
172

>  <ligand_id>  (173) 
172

>  <original_smiles>  (173) 
[H]Oc1c([H])c([H])c([H])c([H])c1-c1nnc(N([H])[H])c(N2C([H])([H])C([H])([H])N(C(=O)c3c(Cl)c([H])c(C([H])([H])Oc4c([H])c(-c5sc([H])nc5C([H])([H])[H])c([H])c([H])c4C([H])([H])N([H])C(=O)C4([H])N(C(=O)C([H])(N([H])C(=O)C5(F)C([H])([H])C5([H])[H])C(C([H])([H])[H])(C([H])([H])[H])C([H])([H])[H])C([H])([H])C([H])(O[H])C4([H])[H])c(Cl)c3Cl)C([H])([H])C2([H])[H])c1[H]

>  <smiles>  (173) 
[H]Oc1c([H])c([H])c([H])c([H])c1-c1nnc(N([H])[H])c(N2C([H])([H])C([H])([H])N(C(=O)c3c(Cl)c([H])c(C([H])([H])Oc4c([H])c(-c5sc([H])nc5C([H])([H])[H])c([H])c([H])c4C([H])([H])N([H])C(=O)C4([H])N(C(=O)C([H])(N([H])C(=O)C5(F)C([H])([H])C5([H])[H])C(C([H])([H])[H])(C([H])([H])[H])C([H])([H])[H])C([H])([H])C([H])(O[H])C4([H])[H])c(Cl)c3Cl)C([H])([H])C2([H])[H])c1[H]

$$$$
173:0:0
     RDKit          3D

 67 73  0  0  1  0  0  0  0  0999 V2000
  -37.3850   13.8400  -23.9140 C   0  0  0  0  0  0  0  0  0  0  0  0
  -36.7390   13.7100  -22.6230 C   0  0  0  0  0  3  0  0  0  0  0  0
  -35.5110   12.9780  -22.4250 C   0  0  0  0  0  0  0  0  0  0  0  0
  -35.6080   12.3520  -24.7750 C   0  0  0  0  0  3  0  0  0  0  0  0
  -36.8340   13.0420  -24.9490 C   0  0  0  0  0  0  0  0  0  0  0  0
  -34.9400   12.3470  -23.5450 C   0  0  0  0  0  3  0  0  0  0  0  0
  -35.2100   12.3550  -19.9050 C   0  0  0  0  0  0  0  0  0  0  0  0
  -33.0290   12.7190  -19.3970 C   0  0  0  0  0  3  0  0  0  0  0  0
  -34.7880   12.8330  -21.1340 C   0  0  0  0  0  0  0  0  0  0  0  0
  -34.2060   12.3080  -18.9300 N   0  0  0  0  0  0  0  0  0  0  0  0
  -33.0690   13.2110  -21.0810 S   0  0  0  0  0  0  0  0  0  0  0  0
  -36.5710   11.8760  -19.5210 C   0  0  0  0  0  1  0  0  0  0  0  0
  -37.6020   12.8560  -26.2500 C   0  0  0  0  0  2  0  0  0  0  0  0
  -36.2000   13.6730  -28.1180 C   0  0  0  0  0  0  0  0  0  0  0  0
  -36.4680   14.8620  -27.9520 O   0  0  0  0  0  0  0  0  0  0  0  0
  -36.7370   12.6860  -27.4010 N   0  0  0  0  0  0  0  0  0  0  0  0
  -36.4730   11.7370  -27.6330 H   0  0  0  0  0  0  0  0  0  0  0  0
  -36.1540   14.4260  -31.1210 C   0  0  0  0  0  0  0  0  0  0  0  0
  -35.1560   13.2440  -29.1540 C   0  0  0  0  0  3  0  0  0  0  0  0
  -33.6930   14.4820  -30.6180 C   0  0  0  0  0  2  0  0  0  0  0  0
  -35.0880   14.1200  -30.3360 N   0  0  0  0  0  0  0  0  0  0  0  0
  -37.2760   13.9530  -30.9070 O   0  0  0  0  0  0  0  0  0  0  0  0
  -33.7590   13.2960  -28.5140 C   0  0  0  0  0  2  0  0  0  0  0  0
  -32.8360   13.6580  -29.6580 C   0  0  0  0  0  3  0  0  0  0  0  0
  -32.4050   12.4850  -30.3320 O   0  0  0  0  0  0  0  0  0  0  0  0
  -33.1730   12.0190  -30.6480 H   0  0  0  0  0  0  0  0  0  0  0  0
  -35.9750   15.3530  -32.3520 C   0  0  0  0  0  3  0  0  0  0  0  0
  -36.7310   14.7500  -33.4630 N   0  0  0  0  0  0  0  0  0  0  0  0
  -36.2210   14.2270  -34.5870 C   0  0  0  0  0  0  0  0  0  0  0  0
  -35.0150   14.2710  -34.8410 O   0  0  0  0  0  0  0  0  0  0  0  0
  -37.7220   14.6130  -33.3130 H   0  0  0  0  0  0  0  0  0  0  0  0
  -37.2140   13.5810  -35.5150 C   0  0  1  0  0  0  0  0  0  0  0  0
  -38.4750   13.4160  -34.9610 F   0  0  0  0  0  0  0  0  0  0  0  0
  -37.1520   13.8810  -36.9940 C   0  0  0  0  0  2  0  0  0  0  0  0
  -36.7540   12.5140  -36.4840 C   0  0  0  0  0  2  0  0  0  0  0  0
  -35.7630   17.4540  -30.8620 C   0  0  0  0  0  1  0  0  0  0  0  0
  -36.0270   17.6970  -33.3170 C   0  0  0  0  0  1  0  0  0  0  0  0
  -37.9700   16.9600  -31.9230 C   0  0  0  0  0  1  0  0  0  0  0  0
  -36.4420   16.8340  -32.1060 C   0  0  1  0  0  0  0  0  0  0  0  0
  -38.5160   14.6830  -24.2070 O   0  0  0  0  0  0  0  0  0  0  0  0
  -38.3890   15.8810  -25.1980 C   0  0  0  0  0  3  0  0  0  0  0  0
  -39.5900   16.7050  -26.0660 C   0  0  0  0  0  3  0  0  0  0  0  0
  -40.1190   18.6130  -28.0580 N   0  0  0  0  0  0  0  0  0  0  0  0
  -39.8070   19.2440  -29.4040 C   0  0  0  0  0  2  0  0  0  0  0  0
  -41.0130   19.3950  -30.4190 C   0  0  0  0  0  2  0  0  0  0  0  0
  -42.1780   18.6140  -30.0010 N   0  0  0  0  0  0  0  0  0  0  0  0
  -42.5940   18.7730  -28.6090 C   0  0  0  0  0  2  0  0  0  0  0  0
  -41.4270   19.1720  -27.6480 C   0  0  0  0  0  2  0  0  0  0  0  0
  -39.2730   17.6880  -27.3590 C   0  0  0  0  0  0  0  0  0  0  0  0
  -38.1290   17.5590  -27.7990 O   0  0  0  0  0  0  0  0  0  0  0  0
  -43.0680   18.0350  -30.9520 C   0  0  0  0  0  0  0  0  0  0  0  0
  -44.3750   18.5240  -31.1940 C   0  0  0  0  0  3  0  0  0  0  0  0
  -45.2260   17.8450  -32.1180 C   0  0  0  0  0  0  0  0  0  0  0  0
  -44.7670   16.7290  -32.7520 N   0  0  0  0  0  0  0  0  0  0  0  0
  -43.5440   16.2400  -32.5290 N   0  0  0  0  0  0  0  0  0  0  0  0
  -42.7150   16.8640  -31.6660 C   0  0  0  0  0  0  0  0  0  0  0  0
  -41.4920   16.2540  -31.4540 N   0  0  0  0  0  0  0  0  0  0  0  0
  -41.0440   16.5880  -30.6100 H   0  0  0  0  0  0  0  0  0  0  0  0
  -41.4730   15.2510  -31.5690 H   0  0  0  0  0  0  0  0  0  0  0  0
  -46.6350   18.2680  -32.4460 C   0  0  0  0  0  0  0  0  0  0  0  0
  -47.5210   17.5550  -33.3210 C   0  0  0  0  0  0  0  0  0  0  0  0
  -48.8360   18.0060  -33.5620 C   0  0  0  0  0  3  0  0  0  0  0  0
  -49.3170   19.1740  -32.9530 C   0  0  0  0  0  3  0  0  0  0  0  0
  -48.4720   19.8980  -32.1000 C   0  0  0  0  0  3  0  0  0  0  0  0
  -47.1600   19.4500  -31.8590 C   0  0  0  0  0  3  0  0  0  0  0  0
  -47.1680   16.4060  -33.9720 O   0  0  0  0  0  0  0  0  0  0  0  0
  -46.2600   16.1770  -33.7760 H   0  0  0  0  0  0  0  0  0  0  0  0
  1  2  1  0
  2  3  2  0
  3  9  1  0
  4  6  2  0
  5  4  1  0
  5  1  2  0
  6  3  1  0
  7 12  1  0
  7 10  1  0
  8 10  2  0
  9 11  1  0
  9  7  2  0
 11  8  1  0
 13  5  1  0
 14 15  2  0
 14 16  1  0
 16 13  1  0
 17 16  1  0
 18 22  2  0
 18 21  1  0
 19 23  1  0
 19 14  1  0
 20 21  1  0
 20 24  1  0
 21 19  1  0
 24 25  1  0
 24 23  1  0
 26 25  1  0
 27 39  1  0
 27 18  1  0
 28 31  1  0
 28 27  1  0
 29 28  1  0
 30 29  2  0
 32 33  1  1
 32 29  1  0
 34 35  1  0
 34 32  1  0
 35 32  1  0
 39 37  1  6
 39 38  1  0
 39 36  1  0
 40  1  1  0
 41 40  1  0
 42 41  2  0
 43 48  1  0
 43 49  1  0
 44 43  1  0
 45 46  1  0
 45 44  1  0
 46 47  1  0
 47 48  1  0
 49 42  1  0
 50 49  2  0
 51 46  1  0
 52 51  1  0
 53 52  2  0
 54 55  2  0
 54 53  1  0
 55 56  1  0
 56 57  1  0
 56 51  2  0
 57 58  1  0
 59 57  1  0
 60 53  1  0
 60 65  1  0
 61 60  2  0
 62 61  1  0
 62 63  2  0
 63 64  1  0
 64 65  2  0
 66 67  1  0
 66 61  1  0
M  ISO  4  40 101  41 101  43 100  49 100
M  END
>  <TORSDO>  (174) 
F 16

>  <SCORE>  (174) 
-14.826

>  <name>  (174) 
173

>  <ligand_id>  (174) 
173

>  <original_smiles>  (174) 
[H]Oc1c([H])c([H])c([H])c([H])c1-c1nnc(N([H])[H])c(N2C([H])([H])C([H])([H])N(C(=O)C([H])([H])C([H])([H])Oc3c([H])c(-c4sc([H])nc4C([H])([H])[H])c([H])c([H])c3C([H])([H])N([H])C(=O)C3([H])N(C(=O)C([H])(N([H])C(=O)C4(F)C([H])([H])C4([H])[H])C(C([H])([H])[H])(C([H])([H])[H])C([H])([H])[H])C([H])([H])C([H])(O[H])C3([H])[H])C([H])([H])C2([H])[H])c1[H]

>  <smiles>  (174) 
[H]Oc1c([H])c([H])c([H])c([H])c1-c1nnc(N([H])[H])c(N2C([H])([H])C([H])([H])N(C(=O)C([H])([H])C([H])([H])Oc3c([H])c(-c4sc([H])nc4C([H])([H])[H])c([H])c([H])c3C([H])([H])N([H])C(=O)C3([H])N(C(=O)C([H])(N([H])C(=O)C4(F)C([H])([H])C4([H])[H])C(C([H])([H])[H])(C([H])([H])[H])C([H])([H])[H])C([H])([H])C([H])(O[H])C3([H])[H])C([H])([H])C2([H])[H])c1[H]

$$$$
174:0:0
     RDKit          3D

 78 86  0  0  1  0  0  0  0  0999 V2000
  -37.4310   13.4460  -23.6980 C   0  0  0  0  0  0  0  0  0  0  0  0
  -36.7140   13.3440  -22.4820 C   0  0  0  0  0  3  0  0  0  0  0  0
  -35.4330   12.7820  -22.4090 C   0  0  0  0  0  0  0  0  0  0  0  0
  -35.5380   12.3730  -24.8120 C   0  0  0  0  0  3  0  0  0  0  0  0
  -36.8360   12.9360  -24.8800 C   0  0  0  0  0  0  0  0  0  0  0  0
  -34.8420   12.3060  -23.5940 C   0  0  0  0  0  3  0  0  0  0  0  0
  -35.2590   12.2480  -19.8940 C   0  0  0  0  0  0  0  0  0  0  0  0
  -33.1010   12.6300  -19.3230 C   0  0  0  0  0  3  0  0  0  0  0  0
  -34.7630   12.6640  -21.1160 C   0  0  0  0  0  0  0  0  0  0  0  0
  -34.2950   12.2250  -18.8860 N   0  0  0  0  0  0  0  0  0  0  0  0
  -33.0710   13.0880  -21.0140 S   0  0  0  0  0  0  0  0  0  0  0  0
  -36.6500   11.8170  -19.5350 C   0  0  0  0  0  1  0  0  0  0  0  0
  -37.6060   12.9540  -26.2020 C   0  0  0  0  0  2  0  0  0  0  0  0
  -36.2170   13.7090  -28.1160 C   0  0  0  0  0  0  0  0  0  0  0  0
  -36.4820   14.9020  -27.9600 O   0  0  0  0  0  0  0  0  0  0  0  0
  -36.7650   12.7380  -27.3770 N   0  0  0  0  0  0  0  0  0  0  0  0
  -36.5160   11.7830  -27.5890 H   0  0  0  0  0  0  0  0  0  0  0  0
  -36.1450   14.4280  -31.1400 C   0  0  0  0  0  0  0  0  0  0  0  0
  -35.1650   13.2680  -29.1500 C   0  0  0  0  0  3  0  0  0  0  0  0
  -33.6920   14.5120  -30.6080 C   0  0  0  0  0  2  0  0  0  0  0  0
  -35.0850   14.1360  -30.3400 N   0  0  0  0  0  0  0  0  0  0  0  0
  -37.2650   13.9450  -30.9370 O   0  0  0  0  0  0  0  0  0  0  0  0
  -33.7690   13.3210  -28.5060 C   0  0  0  0  0  2  0  0  0  0  0  0
  -32.8360   13.7000  -29.6390 C   0  0  0  0  0  3  0  0  0  0  0  0
  -32.3810   12.5360  -30.3110 O   0  0  0  0  0  0  0  0  0  0  0  0
  -33.1390   12.0450  -30.6110 H   0  0  0  0  0  0  0  0  0  0  0  0
  -35.9620   15.3510  -32.3740 C   0  0  0  0  0  3  0  0  0  0  0  0
  -35.7380   17.4550  -30.8870 C   0  0  0  0  0  1  0  0  0  0  0  0
  -36.0090   17.6970  -33.3440 C   0  0  0  0  0  1  0  0  0  0  0  0
  -37.9510   16.9650  -31.9420 C   0  0  0  0  0  1  0  0  0  0  0  0
  -36.4230   16.8350  -32.1300 C   0  0  1  0  0  0  0  0  0  0  0  0
  -36.7210   14.7500  -33.4830 N   0  0  0  0  0  0  0  0  0  0  0  0
  -36.2150   14.2080  -34.5990 C   0  0  0  0  0  0  0  0  0  0  0  0
  -35.0070   14.2290  -34.8460 O   0  0  0  0  0  0  0  0  0  0  0  0
  -37.7160   14.6360  -33.3390 H   0  0  0  0  0  0  0  0  0  0  0  0
  -37.2140   13.5710  -35.5270 C   0  0  1  0  0  0  0  0  0  0  0  0
  -38.4820   13.4400  -34.9810 F   0  0  0  0  0  0  0  0  0  0  0  0
  -37.1300   13.8530  -37.0100 C   0  0  0  0  0  2  0  0  0  0  0  0
  -36.7700   12.4830  -36.4820 C   0  0  0  0  0  2  0  0  0  0  0  0
  -38.6950   14.0030  -23.7580 O   0  0  0  0  0  0  0  0  0  0  0  0
  -38.7020   15.6260  -21.8740 C   0  0  0  0  0  2  0  0  0  0  0  0
  -39.8380   16.6220  -21.7010 C   0  0  0  0  0  2  0  0  0  0  0  0
  -39.3440   14.3760  -22.5220 C   0  0  0  0  0  3  0  0  0  0  0  0
  -40.8120   14.8110  -22.7620 C   0  0  0  0  0  3  0  0  0  0  0  0
  -41.7560   14.2650  -21.6760 C   0  0  0  0  0  1  0  0  0  0  0  0
  -40.7990   16.2780  -22.7470 N   0  0  0  0  0  0  0  0  0  0  0  0
  -39.7230   16.9270  -26.2840 C   0  0  0  0  0  3  0  0  0  0  0  0
  -40.1370   16.2570  -25.1300 C   0  0  0  0  0  3  0  0  0  0  0  0
  -40.0870   19.0530  -25.1660 C   0  0  0  0  0  3  0  0  0  0  0  0
  -39.6750   18.3250  -26.3010 C   0  0  0  0  0  0  0  0  0  0  0  0
  -40.5490   18.3820  -24.0130 C   0  0  0  0  0  0  0  0  0  0  0  0
  -40.5120   16.9590  -23.9550 C   0  0  0  0  0  0  0  0  0  0  0  0
  -41.1140   19.2330  -22.8840 C   0  0  0  0  0  1  0  0  0  0  0  0
  -40.3010   19.2830  -28.4170 N   0  0  0  0  0  0  0  0  0  0  0  0
  -40.0380   19.5500  -29.8390 C   0  0  0  0  0  2  0  0  0  0  0  0
  -41.3130   19.5340  -30.7210 C   0  0  0  0  0  2  0  0  0  0  0  0
  -42.3170   18.6200  -30.1840 N   0  0  0  0  0  0  0  0  0  0  0  0
  -42.7330   18.7980  -28.8020 C   0  0  0  0  0  2  0  0  0  0  0  0
  -41.6810   19.5550  -27.9760 C   0  0  0  0  0  2  0  0  0  0  0  0
  -39.2890   18.9980  -27.5750 C   0  0  0  0  0  0  0  0  0  0  0  0
  -38.0950   19.1260  -27.8610 O   0  0  0  0  0  0  0  0  0  0  0  0
  -43.2330   18.0390  -31.0880 C   0  0  0  0  0  0  0  0  0  0  0  0
  -44.5320   18.5470  -31.2980 C   0  0  0  0  0  3  0  0  0  0  0  0
  -45.3960   17.8770  -32.2070 C   0  0  0  0  0  0  0  0  0  0  0  0
  -44.9510   16.7640  -32.8570 N   0  0  0  0  0  0  0  0  0  0  0  0
  -43.7270   16.2670  -32.6660 N   0  0  0  0  0  0  0  0  0  0  0  0
  -42.8850   16.8760  -31.8070 C   0  0  0  0  0  0  0  0  0  0  0  0
  -41.6520   16.2740  -31.6240 N   0  0  0  0  0  0  0  0  0  0  0  0
  -41.1890   16.5950  -30.7840 H   0  0  0  0  0  0  0  0  0  0  0  0
  -41.6190   15.2750  -31.7670 H   0  0  0  0  0  0  0  0  0  0  0  0
  -46.8070   18.3110  -32.4970 C   0  0  0  0  0  0  0  0  0  0  0  0
  -47.7210   17.5930  -33.3380 C   0  0  0  0  0  0  0  0  0  0  0  0
  -49.0380   18.0500  -33.5470 C   0  0  0  0  0  3  0  0  0  0  0  0
  -49.4930   19.2310  -32.9420 C   0  0  0  0  0  3  0  0  0  0  0  0
  -48.6200   19.9620  -32.1250 C   0  0  0  0  0  3  0  0  0  0  0  0
  -47.3040   19.5070  -31.9120 C   0  0  0  0  0  3  0  0  0  0  0  0
  -47.3940   16.4310  -33.9780 O   0  0  0  0  0  0  0  0  0  0  0  0
  -46.4810   16.1980  -33.7980 H   0  0  0  0  0  0  0  0  0  0  0  0
  1  2  1  0
  2  3  2  0
  3  9  1  0
  4  6  2  0
  5  4  1  0
  5  1  2  0
  6  3  1  0
  7 12  1  0
  7 10  1  0
  8 10  2  0
  9 11  1  0
  9  7  2  0
 11  8  1  0
 13  5  1  0
 14 15  2  0
 14 16  1  0
 16 13  1  0
 17 16  1  0
 18 22  2  0
 18 21  1  0
 19 23  1  0
 19 14  1  0
 20 21  1  0
 20 24  1  0
 21 19  1  0
 24 25  1  0
 24 23  1  0
 26 25  1  0
 27 31  1  0
 27 18  1  0
 31 29  1  6
 31 30  1  0
 31 28  1  0
 32 35  1  0
 32 27  1  0
 33 32  1  0
 34 33  2  0
 36 37  1  1
 36 33  1  0
 38 39  1  0
 38 36  1  0
 39 36  1  0
 40  1  1  0
 41 42  1  0
 43 40  1  0
 43 41  1  0
 44 46  1  0
 44 43  1  0
 44 45  1  0
 46 42  1  0
 47 48  1  0
 48 52  2  0
 49 51  2  0
 50 47  2  0
 50 49  1  0
 51 52  1  0
 51 53  1  0
 52 46  1  0
 54 59  1  0
 54 60  1  0
 55 54  1  0
 56 57  1  0
 56 55  1  0
 57 58  1  0
 58 59  1  0
 60 50  1  0
 61 60  2  0
 62 57  1  0
 63 62  1  0
 64 63  2  0
 65 66  2  0
 65 64  1  0
 66 67  1  0
 67 68  1  0
 67 62  2  0
 68 69  1  0
 70 68  1  0
 71 64  1  0
 71 76  1  0
 72 71  2  0
 73 72  1  0
 73 74  2  0
 74 75  1  0
 75 76  2  0
 77 78  1  0
 77 72  1  0
M  ISO  4  40 101  43 101  54 100  60 100
M  END
>  <TORSDO>  (175) 
F 16

>  <SCORE>  (175) 
-14.433

>  <name>  (175) 
174

>  <ligand_id>  (175) 
174

>  <original_smiles>  (175) 
[H]Oc1c([H])c([H])c([H])c([H])c1-c1nnc(N([H])[H])c(N2C([H])([H])C([H])([H])N(C(=O)c3c([H])c([H])c(N4C([H])([H])C([H])([H])C([H])(Oc5c([H])c(-c6sc([H])nc6C([H])([H])[H])c([H])c([H])c5C([H])([H])N([H])C(=O)C5([H])N(C(=O)C([H])(N([H])C(=O)C6(F)C([H])([H])C6([H])[H])C(C([H])([H])[H])(C([H])([H])[H])C([H])([H])[H])C([H])([H])C([H])(O[H])C5([H])[H])C4([H])C([H])([H])[H])c(C([H])([H])[H])c3[H])C([H])([H])C2([H])[H])c1[H]

>  <smiles>  (175) 
[H]Oc1c([H])c([H])c([H])c([H])c1-c1nnc(N([H])[H])c(N2C([H])([H])C([H])([H])N(C(=O)c3c([H])c([H])c(N4C([H])([H])C([H])([H])C([H])(Oc5c([H])c(-c6sc([H])nc6C([H])([H])[H])c([H])c([H])c5C([H])([H])N([H])C(=O)C5([H])N(C(=O)C([H])(N([H])C(=O)C6(F)C([H])([H])C6([H])[H])C(C([H])([H])[H])(C([H])([H])[H])C([H])([H])[H])C([H])([H])C([H])(O[H])C5([H])[H])C4([H])C([H])([H])[H])c(C([H])([H])[H])c3[H])C([H])([H])C2([H])[H])c1[H]

$$$$
175:0:0
     RDKit          3D

 78 86  0  0  1  0  0  0  0  0999 V2000
  -37.3640   13.5430  -23.7200 C   0  0  0  0  0  0  0  0  0  0  0  0
  -36.7040   13.4370  -22.4710 C   0  0  0  0  0  3  0  0  0  0  0  0
  -35.4890   12.7200  -22.3570 C   0  0  0  0  0  0  0  0  0  0  0  0
  -35.6050   12.1920  -24.7470 C   0  0  0  0  0  3  0  0  0  0  0  0
  -36.8150   12.9100  -24.8640 C   0  0  0  0  0  0  0  0  0  0  0  0
  -34.9440   12.1150  -23.5080 C   0  0  0  0  0  3  0  0  0  0  0  0
  -35.2590   12.1160  -19.8670 C   0  0  0  0  0  0  0  0  0  0  0  0
  -33.0900   12.4590  -19.3320 C   0  0  0  0  0  3  0  0  0  0  0  0
  -34.7890   12.5700  -21.0820 C   0  0  0  0  0  0  0  0  0  0  0  0
  -34.2790   12.0690  -18.8740 N   0  0  0  0  0  0  0  0  0  0  0  0
  -33.0860   12.9510  -21.0100 S   0  0  0  0  0  0  0  0  0  0  0  0
  -36.6490   11.6820  -19.5230 C   0  0  0  0  0  1  0  0  0  0  0  0
  -37.5550   12.9770  -26.2060 C   0  0  0  0  0  2  0  0  0  0  0  0
  -36.1680   13.6820  -28.1280 C   0  0  0  0  0  0  0  0  0  0  0  0
  -36.4310   14.8790  -27.9870 O   0  0  0  0  0  0  0  0  0  0  0  0
  -36.7140   12.7250  -27.3710 N   0  0  0  0  0  0  0  0  0  0  0  0
  -36.4960   11.7640  -27.5960 H   0  0  0  0  0  0  0  0  0  0  0  0
  -36.1040   14.4210  -31.1510 C   0  0  0  0  0  0  0  0  0  0  0  0
  -35.1310   13.2260  -29.1710 C   0  0  0  0  0  3  0  0  0  0  0  0
  -33.6470   14.4600  -30.6220 C   0  0  0  0  0  2  0  0  0  0  0  0
  -35.0470   14.1060  -30.3560 N   0  0  0  0  0  0  0  0  0  0  0  0
  -37.2320   13.9550  -30.9450 O   0  0  0  0  0  0  0  0  0  0  0  0
  -33.7370   13.2760  -28.5230 C   0  0  0  0  0  2  0  0  0  0  0  0
  -32.8010   13.6340  -29.6540 C   0  0  0  0  0  3  0  0  0  0  0  0
  -32.3670   12.4650  -30.3320 O   0  0  0  0  0  0  0  0  0  0  0  0
  -33.1360   11.9950  -30.6380 H   0  0  0  0  0  0  0  0  0  0  0  0
  -35.9090   15.3400  -32.3860 C   0  0  0  0  0  3  0  0  0  0  0  0
  -35.7470   17.4220  -30.8550 C   0  0  0  0  0  1  0  0  0  0  0  0
  -35.8250   17.6950  -33.3190 C   0  0  0  0  0  1  0  0  0  0  0  0
  -37.8820   16.9920  -32.0730 C   0  0  0  0  0  1  0  0  0  0  0  0
  -36.3500   16.8310  -32.1520 C   0  0  1  0  0  0  0  0  0  0  0  0
  -36.6650   14.7390  -33.4980 N   0  0  0  0  0  0  0  0  0  0  0  0
  -36.1550   14.2600  -34.6440 C   0  0  0  0  0  0  0  0  0  0  0  0
  -34.9550   14.3420  -34.9140 O   0  0  0  0  0  0  0  0  0  0  0  0
  -37.6500   14.5780  -33.3370 H   0  0  0  0  0  0  0  0  0  0  0  0
  -37.1470   13.6120  -35.5730 C   0  0  1  0  0  0  0  0  0  0  0  0
  -38.3850   13.3770  -34.9950 F   0  0  0  0  0  0  0  0  0  0  0  0
  -37.1290   13.9600  -37.0450 C   0  0  0  0  0  2  0  0  0  0  0  0
  -36.6690   12.5950  -36.5890 C   0  0  0  0  0  2  0  0  0  0  0  0
  -38.4390   14.3750  -23.9200 O   0  0  0  0  0  0  0  0  0  0  0  0
  -40.5720   16.1660  -24.7700 C   0  0  0  0  0  2  0  0  0  0  0  0
  -40.0330   16.7730  -22.3430 C   0  0  0  0  0  2  0  0  0  0  0  0
  -40.6800   14.6760  -24.3530 C   0  0  0  0  0  2  0  0  0  0  0  0
  -39.8710   15.2530  -22.0150 C   0  0  0  0  0  2  0  0  0  0  0  0
  -39.7030   17.0140  -23.8160 C   0  0  0  0  0  3  0  0  0  0  0  0
  -39.6810   14.2850  -23.2330 C   0  0  0  0  0  3  0  0  0  0  0  0
  -38.0950   18.6940  -24.7490 C   0  0  0  0  0  3  0  0  0  0  0  0
  -40.4020   19.3790  -24.5980 C   0  0  0  0  0  3  0  0  0  0  0  0
  -39.4080   18.4260  -24.3070 C   0  0  0  0  0  0  0  0  0  0  0  0
  -37.9210   19.5940  -25.8110 C   0  0  0  0  0  0  0  0  0  0  0  0
  -39.0790   20.2220  -26.3100 C   0  0  0  0  0  0  0  0  0  0  0  0
  -40.2040   20.3200  -25.5470 N   0  0  0  0  0  0  0  0  0  0  0  0
  -36.7250   19.6570  -26.4530 F   0  0  0  0  0  0  0  0  0  0  0  0
  -39.9620   19.6700  -28.5340 N   0  0  0  0  0  0  0  0  0  0  0  0
  -39.7440   19.4600  -29.9810 C   0  0  0  0  0  2  0  0  0  0  0  0
  -41.0390   19.5530  -30.8080 C   0  0  0  0  0  2  0  0  0  0  0  0
  -42.0300   18.6520  -30.2610 N   0  0  0  0  0  0  0  0  0  0  0  0
  -42.4260   18.8400  -28.8830 C   0  0  0  0  0  2  0  0  0  0  0  0
  -41.2910   19.3270  -27.9780 C   0  0  0  0  0  2  0  0  0  0  0  0
  -39.1660   20.5100  -27.7970 C   0  0  0  0  0  0  0  0  0  0  0  0
  -38.4070   21.3480  -28.2970 O   0  0  0  0  0  0  0  0  0  0  0  0
  -42.9880   18.0720  -31.1270 C   0  0  0  0  0  0  0  0  0  0  0  0
  -44.2940   18.5810  -31.2880 C   0  0  0  0  0  3  0  0  0  0  0  0
  -45.1980   17.8890  -32.1430 C   0  0  0  0  0  0  0  0  0  0  0  0
  -44.7830   16.7600  -32.7850 N   0  0  0  0  0  0  0  0  0  0  0  0
  -43.5520   16.2620  -32.6290 N   0  0  0  0  0  0  0  0  0  0  0  0
  -42.6720   16.8940  -31.8270 C   0  0  0  0  0  0  0  0  0  0  0  0
  -41.4300   16.3080  -31.6740 N   0  0  0  0  0  0  0  0  0  0  0  0
  -40.9580   16.6940  -30.8640 H   0  0  0  0  0  0  0  0  0  0  0  0
  -41.3890   15.3050  -31.7490 H   0  0  0  0  0  0  0  0  0  0  0  0
  -46.6200   18.3200  -32.3840 C   0  0  0  0  0  0  0  0  0  0  0  0
  -47.5390   17.6400  -33.2520 C   0  0  0  0  0  0  0  0  0  0  0  0
  -48.8660   18.0900  -33.4130 C   0  0  0  0  0  3  0  0  0  0  0  0
  -49.3300   19.2200  -32.7280 C   0  0  0  0  0  3  0  0  0  0  0  0
  -48.4550   19.9100  -31.8780 C   0  0  0  0  0  3  0  0  0  0  0  0
  -47.1310   19.4620  -31.7110 C   0  0  0  0  0  3  0  0  0  0  0  0
  -47.2050   16.5280  -33.9710 O   0  0  0  0  0  0  0  0  0  0  0  0
  -46.2870   16.3020  -33.8260 H   0  0  0  0  0  0  0  0  0  0  0  0
  1  2  1  0
  2  3  2  0
  3  9  1  0
  4  6  2  0
  5  4  1  0
  5  1  2  0
  6  3  1  0
  7 12  1  0
  7 10  1  0
  8 10  2  0
  9 11  1  0
  9  7  2  0
 11  8  1  0
 13  5  1  0
 14 15  2  0
 14 16  1  0
 16 13  1  0
 17 16  1  0
 18 22  2  0
 18 21  1  0
 19 23  1  0
 19 14  1  0
 20 21  1  0
 20 24  1  0
 21 19  1  0
 24 25  1  0
 24 23  1  0
 26 25  1  0
 27 31  1  0
 27 18  1  0
 31 29  1  6
 31 30  1  0
 31 28  1  0
 32 35  1  0
 32 27  1  0
 33 32  1  0
 34 33  2  0
 36 37  1  1
 36 33  1  0
 38 39  1  0
 38 36  1  0
 39 36  1  0
 40  1  1  0
 41 43  1  0
 41 45  1  0
 42 44  1  0
 43 46  1  0
 45 49  1  0
 45 42  1  0
 46 40  1  0
 46 44  1  0
 47 49  1  0
 48 49  2  0
 50 47  2  0
 51 50  1  0
 51 52  2  0
 52 48  1  0
 53 50  1  0
 54 59  1  0
 54 60  1  0
 55 54  1  0
 56 57  1  0
 56 55  1  0
 57 58  1  0
 58 59  1  0
 60 51  1  0
 61 60  2  0
 62 57  1  0
 63 62  1  0
 64 63  2  0
 65 66  2  0
 65 64  1  0
 66 67  1  0
 67 68  1  0
 67 62  2  0
 68 69  1  0
 70 68  1  0
 71 64  1  0
 71 76  1  0
 72 71  2  0
 73 72  1  0
 73 74  2  0
 74 75  1  0
 75 76  2  0
 77 78  1  0
 77 72  1  0
M  ISO  4  40 101  46 101  54 100  60 100
M  END
>  <TORSDO>  (176) 
F 16

>  <SCORE>  (176) 
-14.583

>  <name>  (176) 
175

>  <ligand_id>  (176) 
175

>  <original_smiles>  (176) 
[H]Oc1c([H])c([H])c([H])c([H])c1-c1nnc(N([H])[H])c(N2C([H])([H])C([H])([H])N(C(=O)c3nc([H])c(C4([H])C([H])([H])C([H])([H])C([H])(Oc5c([H])c(-c6sc([H])nc6C([H])([H])[H])c([H])c([H])c5C([H])([H])N([H])C(=O)C5([H])N(C(=O)C([H])(N([H])C(=O)C6(F)C([H])([H])C6([H])[H])C(C([H])([H])[H])(C([H])([H])[H])C([H])([H])[H])C([H])([H])C([H])(O[H])C5([H])[H])C([H])([H])C4([H])[H])c([H])c3F)C([H])([H])C2([H])[H])c1[H]

>  <smiles>  (176) 
[H]Oc1c([H])c([H])c([H])c([H])c1-c1nnc(N([H])[H])c(N2C([H])([H])C([H])([H])N(C(=O)c3nc([H])c(C4([H])C([H])([H])C([H])([H])C([H])(Oc5c([H])c(-c6sc([H])nc6C([H])([H])[H])c([H])c([H])c5C([H])([H])N([H])C(=O)C5([H])N(C(=O)C([H])(N([H])C(=O)C6(F)C([H])([H])C6([H])[H])C(C([H])([H])[H])(C([H])([H])[H])C([H])([H])[H])C([H])([H])C([H])(O[H])C5([H])[H])C([H])([H])C4([H])[H])c([H])c3F)C([H])([H])C2([H])[H])c1[H]

$$$$
176:0:0
     RDKit          3D

 74 81  0  0  1  0  0  0  0  0999 V2000
  -37.3700   13.4800  -23.6980 C   0  0  0  0  0  0  0  0  0  0  0  0
  -36.6660   13.4410  -22.4710 C   0  0  0  0  0  3  0  0  0  0  0  0
  -35.3840   12.8540  -22.3810 C   0  0  0  0  0  0  0  0  0  0  0  0
  -35.4910   12.3550  -24.7730 C   0  0  0  0  0  3  0  0  0  0  0  0
  -36.7850   12.9170  -24.8550 C   0  0  0  0  0  0  0  0  0  0  0  0
  -34.8000   12.3280  -23.5510 C   0  0  0  0  0  3  0  0  0  0  0  0
  -35.1390   12.2820  -19.8770 C   0  0  0  0  0  0  0  0  0  0  0  0
  -32.9780   12.6990  -19.3410 C   0  0  0  0  0  3  0  0  0  0  0  0
  -34.6830   12.7340  -21.1000 C   0  0  0  0  0  0  0  0  0  0  0  0
  -34.1540   12.2660  -18.8860 N   0  0  0  0  0  0  0  0  0  0  0  0
  -32.9920   13.1780  -21.0270 S   0  0  0  0  0  0  0  0  0  0  0  0
  -36.5090   11.7980  -19.5140 C   0  0  0  0  0  1  0  0  0  0  0  0
  -37.5690   12.8920  -26.1670 C   0  0  0  0  0  2  0  0  0  0  0  0
  -36.2200   13.6700  -28.0970 C   0  0  0  0  0  0  0  0  0  0  0  0
  -36.5080   14.8580  -27.9460 O   0  0  0  0  0  0  0  0  0  0  0  0
  -36.7340   12.6920  -27.3470 N   0  0  0  0  0  0  0  0  0  0  0  0
  -36.4640   11.7410  -27.5560 H   0  0  0  0  0  0  0  0  0  0  0  0
  -36.1720   14.4080  -31.1170 C   0  0  0  0  0  0  0  0  0  0  0  0
  -35.1740   13.2400  -29.1410 C   0  0  0  0  0  3  0  0  0  0  0  0
  -33.7140   14.4800  -30.6130 C   0  0  0  0  0  2  0  0  0  0  0  0
  -35.1070   14.1110  -30.3280 N   0  0  0  0  0  0  0  0  0  0  0  0
  -37.2910   13.9270  -30.9050 O   0  0  0  0  0  0  0  0  0  0  0  0
  -33.7740   13.2930  -28.5090 C   0  0  0  0  0  2  0  0  0  0  0  0
  -32.8510   13.6660  -29.6520 C   0  0  0  0  0  3  0  0  0  0  0  0
  -32.4020   12.5010  -30.3260 O   0  0  0  0  0  0  0  0  0  0  0  0
  -33.1640   12.0200  -30.6370 H   0  0  0  0  0  0  0  0  0  0  0  0
  -35.9990   15.3350  -32.3500 C   0  0  0  0  0  3  0  0  0  0  0  0
  -35.8550   17.4340  -30.8460 C   0  0  0  0  0  1  0  0  0  0  0  0
  -36.0610   17.6830  -33.3080 C   0  0  0  0  0  1  0  0  0  0  0  0
  -38.0260   16.9080  -31.9660 C   0  0  0  0  0  1  0  0  0  0  0  0
  -36.4930   16.8080  -32.1100 C   0  0  1  0  0  0  0  0  0  0  0  0
  -36.7340   14.7180  -33.4660 N   0  0  0  0  0  0  0  0  0  0  0  0
  -36.2050   14.2020  -34.5840 C   0  0  0  0  0  0  0  0  0  0  0  0
  -34.9970   14.2640  -34.8270 O   0  0  0  0  0  0  0  0  0  0  0  0
  -37.7240   14.5670  -33.3240 H   0  0  0  0  0  0  0  0  0  0  0  0
  -37.1790   13.5390  -35.5190 C   0  0  1  0  0  0  0  0  0  0  0  0
  -38.4420   13.3580  -34.9790 F   0  0  0  0  0  0  0  0  0  0  0  0
  -37.1040   13.8350  -36.9990 C   0  0  0  0  0  2  0  0  0  0  0  0
  -36.6930   12.4750  -36.4800 C   0  0  0  0  0  2  0  0  0  0  0  0
  -38.6630   13.9440  -23.7830 O   0  0  0  0  0  0  0  0  0  0  0  0
  -38.9650   15.2370  -23.2710 C   0  0  0  0  0  2  0  0  0  0  0  0
  -39.7230   15.8610  -25.5930 C   0  0  0  0  0  3  0  0  0  0  0  0
  -38.4490   17.4950  -24.3140 C   0  0  0  0  0  3  0  0  0  0  0  0
  -39.0670   17.9690  -26.6330 C   0  0  0  0  0  0  0  0  0  0  0  0
  -39.0530   16.2280  -24.4100 C   0  0  0  0  0  0  0  0  0  0  0  0
  -39.7120   16.7130  -26.7090 C   0  0  0  0  0  0  0  0  0  0  0  0
  -38.4510   18.3630  -25.4220 C   0  0  0  0  0  0  0  0  0  0  0  0
  -40.2830   16.2830  -27.8600 F   0  0  0  0  0  0  0  0  0  0  0  0
  -37.8310   19.5650  -25.3130 F   0  0  0  0  0  0  0  0  0  0  0  0
  -39.9970   19.1460  -28.5700 N   0  0  0  0  0  0  0  0  0  0  0  0
  -39.8230   19.4400  -29.9970 C   0  0  0  0  0  2  0  0  0  0  0  0
  -41.1360   19.4730  -30.8020 C   0  0  0  0  0  2  0  0  0  0  0  0
  -42.1310   18.5860  -30.2170 N   0  0  0  0  0  0  0  0  0  0  0  0
  -42.4730   18.7810  -28.8110 C   0  0  0  0  0  2  0  0  0  0  0  0
  -41.3280   19.4560  -28.0150 C   0  0  0  0  0  2  0  0  0  0  0  0
  -38.8980   18.7970  -27.8670 C   0  0  0  0  0  0  0  0  0  0  0  0
  -37.7530   19.0420  -28.2700 O   0  0  0  0  0  0  0  0  0  0  0  0
  -43.0780   18.0050  -31.0890 C   0  0  0  0  0  0  0  0  0  0  0  0
  -44.3770   18.5280  -31.2660 C   0  0  0  0  0  3  0  0  0  0  0  0
  -45.2690   17.8740  -32.1590 C   0  0  0  0  0  0  0  0  0  0  0  0
  -44.8530   16.7580  -32.8250 N   0  0  0  0  0  0  0  0  0  0  0  0
  -43.6310   16.2440  -32.6620 N   0  0  0  0  0  0  0  0  0  0  0  0
  -42.7610   16.8420  -31.8230 C   0  0  0  0  0  0  0  0  0  0  0  0
  -41.5290   16.2280  -31.6780 N   0  0  0  0  0  0  0  0  0  0  0  0
  -41.0410   16.5440  -30.8490 H   0  0  0  0  0  0  0  0  0  0  0  0
  -41.5140   15.2290  -31.8200 H   0  0  0  0  0  0  0  0  0  0  0  0
  -46.6800   18.3280  -32.4170 C   0  0  0  0  0  0  0  0  0  0  0  0
  -47.6090   17.6460  -33.2690 C   0  0  0  0  0  0  0  0  0  0  0  0
  -48.9250   18.1210  -33.4460 C   0  0  0  0  0  3  0  0  0  0  0  0
  -49.3620   19.2810  -32.7920 C   0  0  0  0  0  3  0  0  0  0  0  0
  -48.4740   19.9750  -31.9590 C   0  0  0  0  0  3  0  0  0  0  0  0
  -47.1600   19.5060  -31.7830 C   0  0  0  0  0  3  0  0  0  0  0  0
  -47.2960   16.5080  -33.9560 O   0  0  0  0  0  0  0  0  0  0  0  0
  -46.3840   16.2630  -33.7990 H   0  0  0  0  0  0  0  0  0  0  0  0
  1  2  1  0
  2  3  2  0
  3  9  1  0
  4  6  2  0
  5  4  1  0
  5  1  2  0
  6  3  1  0
  7 12  1  0
  7 10  1  0
  8 10  2  0
  9 11  1  0
  9  7  2  0
 11  8  1  0
 13  5  1  0
 14 15  2  0
 14 16  1  0
 16 13  1  0
 17 16  1  0
 18 22  2  0
 18 21  1  0
 19 23  1  0
 19 14  1  0
 20 21  1  0
 20 24  1  0
 21 19  1  0
 24 25  1  0
 24 23  1  0
 26 25  1  0
 27 31  1  0
 27 18  1  0
 31 29  1  6
 31 30  1  0
 31 28  1  0
 32 35  1  0
 32 27  1  0
 33 32  1  0
 34 33  2  0
 36 37  1  1
 36 33  1  0
 38 39  1  0
 38 36  1  0
 39 36  1  0
 40  1  1  0
 40 41  1  0
 42 45  1  0
 44 47  2  0
 45 43  2  0
 45 41  1  0
 46 44  1  0
 46 42  2  0
 47 49  1  0
 47 43  1  0
 48 46  1  0
 50 55  1  0
 50 56  1  0
 51 50  1  0
 52 53  1  0
 52 51  1  0
 53 54  1  0
 54 55  1  0
 56 44  1  0
 57 56  2  0
 58 53  1  0
 59 58  1  0
 60 59  2  0
 61 62  2  0
 61 60  1  0
 62 63  1  0
 63 64  1  0
 63 58  2  0
 64 65  1  0
 66 64  1  0
 67 60  1  0
 67 72  1  0
 68 67  2  0
 69 68  1  0
 69 70  2  0
 70 71  1  0
 71 72  2  0
 73 74  1  0
 73 68  1  0
M  ISO  4  40 101  41 101  50 100  56 100
M  END
>  <TORSDO>  (177) 
F 16

>  <SCORE>  (177) 
-14.469

>  <name>  (177) 
176

>  <ligand_id>  (177) 
176

>  <original_smiles>  (177) 
[H]Oc1c([H])c([H])c([H])c([H])c1-c1nnc(N([H])[H])c(N2C([H])([H])C([H])([H])N(C(=O)c3c(F)c([H])c(C([H])([H])Oc4c([H])c(-c5sc([H])nc5C([H])([H])[H])c([H])c([H])c4C([H])([H])N([H])C(=O)C4([H])N(C(=O)C([H])(N([H])C(=O)C5(F)C([H])([H])C5([H])[H])C(C([H])([H])[H])(C([H])([H])[H])C([H])([H])[H])C([H])([H])C([H])(O[H])C4([H])[H])c([H])c3F)C([H])([H])C2([H])[H])c1[H]

>  <smiles>  (177) 
[H]Oc1c([H])c([H])c([H])c([H])c1-c1nnc(N([H])[H])c(N2C([H])([H])C([H])([H])N(C(=O)c3c(F)c([H])c(C([H])([H])Oc4c([H])c(-c5sc([H])nc5C([H])([H])[H])c([H])c([H])c4C([H])([H])N([H])C(=O)C4([H])N(C(=O)C([H])(N([H])C(=O)C5(F)C([H])([H])C5([H])[H])C(C([H])([H])[H])(C([H])([H])[H])C([H])([H])[H])C([H])([H])C([H])(O[H])C4([H])[H])c([H])c3F)C([H])([H])C2([H])[H])c1[H]

$$$$
177:0:0
     RDKit          3D

 76 84  0  0  1  0  0  0  0  0999 V2000
  -37.4570   13.5650  -23.7120 C   0  0  0  0  0  0  0  0  0  0  0  0
  -36.7490   13.4940  -22.4900 C   0  0  0  0  0  3  0  0  0  0  0  0
  -35.4630   12.9180  -22.4040 C   0  0  0  0  0  0  0  0  0  0  0  0
  -35.5650   12.4800  -24.8050 C   0  0  0  0  0  3  0  0  0  0  0  0
  -36.8670   13.0300  -24.8870 C   0  0  0  0  0  0  0  0  0  0  0  0
  -34.8700   12.4320  -23.5860 C   0  0  0  0  0  3  0  0  0  0  0  0
  -35.2270   12.3040  -19.9040 C   0  0  0  0  0  0  0  0  0  0  0  0
  -33.0670   12.7110  -19.3570 C   0  0  0  0  0  3  0  0  0  0  0  0
  -34.7690   12.7720  -21.1230 C   0  0  0  0  0  0  0  0  0  0  0  0
  -34.2470   12.2790  -18.9100 N   0  0  0  0  0  0  0  0  0  0  0  0
  -33.0780   13.2120  -21.0370 S   0  0  0  0  0  0  0  0  0  0  0  0
  -36.5990   11.8210  -19.5510 C   0  0  0  0  0  1  0  0  0  0  0  0
  -37.6410   12.9120  -26.2030 C   0  0  0  0  0  2  0  0  0  0  0  0
  -36.2670   13.7210  -28.1110 C   0  0  0  0  0  0  0  0  0  0  0  0
  -36.5430   14.9130  -27.9510 O   0  0  0  0  0  0  0  0  0  0  0  0
  -36.7900   12.7390  -27.3740 N   0  0  0  0  0  0  0  0  0  0  0  0
  -36.5140   11.7900  -27.5910 H   0  0  0  0  0  0  0  0  0  0  0  0
  -36.1980   14.4560  -31.1350 C   0  0  0  0  0  0  0  0  0  0  0  0
  -35.2230   13.2810  -29.1490 C   0  0  0  0  0  3  0  0  0  0  0  0
  -33.7430   14.4810  -30.6280 C   0  0  0  0  0  2  0  0  0  0  0  0
  -35.1410   14.1410  -30.3440 N   0  0  0  0  0  0  0  0  0  0  0  0
  -37.3280   13.9970  -30.9250 O   0  0  0  0  0  0  0  0  0  0  0  0
  -33.8240   13.3190  -28.5140 C   0  0  0  0  0  2  0  0  0  0  0  0
  -32.8940   13.6580  -29.6620 C   0  0  0  0  0  3  0  0  0  0  0  0
  -32.4710   12.4780  -30.3290 O   0  0  0  0  0  0  0  0  0  0  0  0
  -33.2380   12.0240  -30.6620 H   0  0  0  0  0  0  0  0  0  0  0  0
  -36.0030   15.3760  -32.3730 C   0  0  0  0  0  3  0  0  0  0  0  0
  -35.8240   17.4750  -30.8780 C   0  0  0  0  0  1  0  0  0  0  0  0
  -36.0190   17.7240  -33.3400 C   0  0  0  0  0  1  0  0  0  0  0  0
  -38.0010   16.9890  -32.0060 C   0  0  0  0  0  1  0  0  0  0  0  0
  -36.4690   16.8590  -32.1420 C   0  0  1  0  0  0  0  0  0  0  0  0
  -36.7460   14.7690  -33.4910 N   0  0  0  0  0  0  0  0  0  0  0  0
  -36.2230   14.2290  -34.6010 C   0  0  0  0  0  0  0  0  0  0  0  0
  -35.0130   14.2550  -34.8370 O   0  0  0  0  0  0  0  0  0  0  0  0
  -37.7390   14.6440  -33.3540 H   0  0  0  0  0  0  0  0  0  0  0  0
  -37.2080   13.5800  -35.5360 C   0  0  1  0  0  0  0  0  0  0  0  0
  -38.4770   13.4320  -35.0000 F   0  0  0  0  0  0  0  0  0  0  0  0
  -37.1160   13.8580  -37.0180 C   0  0  0  0  0  2  0  0  0  0  0  0
  -36.7420   12.4930  -36.4820 C   0  0  0  0  0  2  0  0  0  0  0  0
  -38.7690   13.9730  -23.6450 O   0  0  0  0  0  0  0  0  0  0  0  0
  -39.2260   15.1670  -24.2650 C   0  0  0  0  0  2  0  0  0  0  0  0
  -38.7000   18.3800  -22.1000 C   0  0  0  0  0  2  0  0  0  0  0  0
  -38.9680   16.8620  -22.2440 C   0  0  0  0  0  2  0  0  0  0  0  0
  -37.3360   18.8310  -22.7010 C   0  0  0  0  0  2  0  0  0  0  0  0
  -37.2340   16.8000  -24.0270 C   0  0  0  0  0  2  0  0  0  0  0  0
  -38.7130   16.5010  -23.7130 C   0  0  0  0  0  3  0  0  0  0  0  0
  -37.0440   18.2550  -24.0300 N   0  0  0  0  0  0  0  0  0  0  0  0
  -40.3590   19.3110  -28.3030 N   0  0  0  0  0  0  0  0  0  0  0  0
  -40.0460   19.5920  -29.7040 C   0  0  0  0  0  2  0  0  0  0  0  0
  -41.2970   19.5460  -30.6280 C   0  0  0  0  0  2  0  0  0  0  0  0
  -42.3520   18.6850  -30.0880 N   0  0  0  0  0  0  0  0  0  0  0  0
  -42.7810   18.9020  -28.7070 C   0  0  0  0  0  2  0  0  0  0  0  0
  -41.7130   19.6170  -27.8440 C   0  0  0  0  0  2  0  0  0  0  0  0
  -37.3490   18.2050  -26.4700 C   0  0  0  0  0  3  0  0  0  0  0  0
  -38.2130   18.4380  -27.5530 C   0  0  0  0  0  3  0  0  0  0  0  0
  -38.6430   19.7770  -25.1930 C   0  0  0  0  0  3  0  0  0  0  0  0
  -37.6250   18.7950  -25.2100 C   0  0  0  0  0  0  0  0  0  0  0  0
  -39.3170   19.2800  -27.3620 C   0  0  0  0  0  0  0  0  0  0  0  0
  -39.4800   19.9940  -26.2300 N   0  0  0  0  0  0  0  0  0  0  0  0
  -43.2440   18.0630  -30.9890 C   0  0  0  0  0  0  0  0  0  0  0  0
  -44.5470   18.5490  -31.2340 C   0  0  0  0  0  3  0  0  0  0  0  0
  -45.3940   17.8420  -32.1340 C   0  0  0  0  0  0  0  0  0  0  0  0
  -44.9300   16.7140  -32.7450 N   0  0  0  0  0  0  0  0  0  0  0  0
  -43.7020   16.2370  -32.5190 N   0  0  0  0  0  0  0  0  0  0  0  0
  -42.8770   16.8790  -31.6670 C   0  0  0  0  0  0  0  0  0  0  0  0
  -41.6440   16.2920  -31.4470 N   0  0  0  0  0  0  0  0  0  0  0  0
  -41.1960   16.6450  -30.6100 H   0  0  0  0  0  0  0  0  0  0  0  0
  -41.6080   15.2880  -31.5530 H   0  0  0  0  0  0  0  0  0  0  0  0
  -46.8030   18.2520  -32.4590 C   0  0  0  0  0  0  0  0  0  0  0  0
  -47.6880   17.5220  -33.3210 C   0  0  0  0  0  0  0  0  0  0  0  0
  -49.0030   17.9640  -33.5660 C   0  0  0  0  0  3  0  0  0  0  0  0
  -49.4880   19.1370  -32.9700 C   0  0  0  0  0  3  0  0  0  0  0  0
  -48.6450   19.8780  -32.1310 C   0  0  0  0  0  3  0  0  0  0  0  0
  -47.3320   19.4390  -31.8850 C   0  0  0  0  0  3  0  0  0  0  0  0
  -47.3240   16.3670  -33.9550 O   0  0  0  0  0  0  0  0  0  0  0  0
  -46.4140   16.1470  -33.7530 H   0  0  0  0  0  0  0  0  0  0  0  0
  1 40  1  0
  1  2  1  0
  2  3  2  0
  3  9  1  0
  4  6  2  0
  5  4  1  0
  5  1  2  0
  6  3  1  0
  7 12  1  0
  7 10  1  0
  8 10  2  0
  9 11  1  0
  9  7  2  0
 11  8  1  0
 13  5  1  0
 14 15  2  0
 14 16  1  0
 16 13  1  0
 17 16  1  0
 18 22  2  0
 18 21  1  0
 19 23  1  0
 19 14  1  0
 20 21  1  0
 20 24  1  0
 21 19  1  0
 24 25  1  0
 24 23  1  0
 26 25  1  0
 27 31  1  0
 27 18  1  0
 31 29  1  6
 31 30  1  0
 31 28  1  0
 32 35  1  0
 32 27  1  0
 33 32  1  0
 34 33  2  0
 36 37  1  1
 36 33  1  0
 38 39  1  0
 38 36  1  0
 39 36  1  0
 41 40  1  0
 43 42  1  0
 44 42  1  0
 45 46  1  0
 46 41  1  0
 46 43  1  0
 47 45  1  0
 47 44  1  0
 48 53  1  0
 48 58  1  0
 49 48  1  0
 50 51  1  0
 50 49  1  0
 51 52  1  0
 52 53  1  0
 54 57  1  0
 55 58  1  0
 55 54  2  0
 57 56  2  0
 57 47  1  0
 58 59  2  0
 59 56  1  0
 60 51  1  0
 61 60  1  0
 62 61  2  0
 63 64  2  0
 63 62  1  0
 64 65  1  0
 65 66  1  0
 65 60  2  0
 66 67  1  0
 68 66  1  0
 69 62  1  0
 69 74  1  0
 70 69  2  0
 71 70  1  0
 71 72  2  0
 72 73  1  0
 73 74  2  0
 75 76  1  0
 75 70  1  0
M  ISO  4  40 101  41 101  48 100  58 100
M  END
>  <TORSDO>  (178) 
F 16

>  <SCORE>  (178) 
-14.520

>  <name>  (178) 
177

>  <ligand_id>  (178) 
177

>  <original_smiles>  (178) 
[H]Oc1c([H])c([H])c([H])c([H])c1-c1nnc(N([H])[H])c(N2C([H])([H])C([H])([H])N(c3nc([H])c(N4C([H])([H])C([H])([H])C([H])([H])C([H])(C([H])([H])Oc5c([H])c(-c6sc([H])nc6C([H])([H])[H])c([H])c([H])c5C([H])([H])N([H])C(=O)C5([H])N(C(=O)C([H])(N([H])C(=O)C6(F)C([H])([H])C6([H])[H])C(C([H])([H])[H])(C([H])([H])[H])C([H])([H])[H])C([H])([H])C([H])(O[H])C5([H])[H])C4([H])[H])c([H])c3[H])C([H])([H])C2([H])[H])c1[H]

>  <smiles>  (178) 
[H]Oc1c([H])c([H])c([H])c([H])c1-c1nnc(N([H])[H])c(N2C([H])([H])C([H])([H])N(c3nc([H])c(N4C([H])([H])C([H])([H])C([H])([H])C([H])(C([H])([H])Oc5c([H])c(-c6sc([H])nc6C([H])([H])[H])c([H])c([H])c5C([H])([H])N([H])C(=O)C5([H])N(C(=O)C([H])(N([H])C(=O)C6(F)C([H])([H])C6([H])[H])C(C([H])([H])[H])(C([H])([H])[H])C([H])([H])[H])C([H])([H])C([H])(O[H])C5([H])[H])C4([H])[H])c([H])c3[H])C([H])([H])C2([H])[H])c1[H]

$$$$
178:0:0
     RDKit          3D

 74 81  0  0  1  0  0  0  0  0999 V2000
  -37.3760   13.4820  -23.7060 C   0  0  0  0  0  0  0  0  0  0  0  0
  -36.6840   13.4410  -22.4770 C   0  0  0  0  0  3  0  0  0  0  0  0
  -35.3970   12.8690  -22.3910 C   0  0  0  0  0  0  0  0  0  0  0  0
  -35.4860   12.4070  -24.7950 C   0  0  0  0  0  3  0  0  0  0  0  0
  -36.7870   12.9520  -24.8740 C   0  0  0  0  0  0  0  0  0  0  0  0
  -34.8010   12.3700  -23.5690 C   0  0  0  0  0  3  0  0  0  0  0  0
  -35.1590   12.2600  -19.8980 C   0  0  0  0  0  0  0  0  0  0  0  0
  -33.0120   12.7160  -19.3400 C   0  0  0  0  0  3  0  0  0  0  0  0
  -34.7050   12.7440  -21.1090 C   0  0  0  0  0  0  0  0  0  0  0  0
  -34.1820   12.2510  -18.9000 N   0  0  0  0  0  0  0  0  0  0  0  0
  -33.0240   13.2220  -21.0170 S   0  0  0  0  0  0  0  0  0  0  0  0
  -36.5200   11.7410  -19.5540 C   0  0  0  0  0  1  0  0  0  0  0  0
  -37.5680   12.9480  -26.1870 C   0  0  0  0  0  2  0  0  0  0  0  0
  -36.2130   13.7150  -28.1160 C   0  0  0  0  0  0  0  0  0  0  0  0
  -36.5020   14.9080  -27.9750 O   0  0  0  0  0  0  0  0  0  0  0  0
  -36.7330   12.7410  -27.3630 N   0  0  0  0  0  0  0  0  0  0  0  0
  -36.4640   11.7890  -27.5690 H   0  0  0  0  0  0  0  0  0  0  0  0
  -36.1500   14.4290  -31.1420 C   0  0  0  0  0  0  0  0  0  0  0  0
  -35.1640   13.2740  -29.1520 C   0  0  0  0  0  3  0  0  0  0  0  0
  -33.6940   14.4980  -30.6270 C   0  0  0  0  0  2  0  0  0  0  0  0
  -35.0880   14.1360  -30.3460 N   0  0  0  0  0  0  0  0  0  0  0  0
  -37.2710   13.9520  -30.9300 O   0  0  0  0  0  0  0  0  0  0  0  0
  -33.7650   13.3270  -28.5150 C   0  0  0  0  0  2  0  0  0  0  0  0
  -32.8370   13.6880  -29.6580 C   0  0  0  0  0  3  0  0  0  0  0  0
  -32.3920   12.5160  -30.3250 O   0  0  0  0  0  0  0  0  0  0  0  0
  -33.1540   12.0400  -30.6390 H   0  0  0  0  0  0  0  0  0  0  0  0
  -35.9700   15.3520  -32.3760 C   0  0  0  0  0  3  0  0  0  0  0  0
  -35.7600   17.4510  -30.8880 C   0  0  0  0  0  1  0  0  0  0  0  0
  -36.0140   17.6970  -33.3430 C   0  0  0  0  0  1  0  0  0  0  0  0
  -37.9670   16.9600  -31.9590 C   0  0  0  0  0  1  0  0  0  0  0  0
  -36.4370   16.8340  -32.1350 C   0  0  1  0  0  0  0  0  0  0  0  0
  -36.7250   14.7460  -33.4850 N   0  0  0  0  0  0  0  0  0  0  0  0
  -36.2120   14.2110  -34.6020 C   0  0  0  0  0  0  0  0  0  0  0  0
  -35.0050   14.2450  -34.8510 O   0  0  0  0  0  0  0  0  0  0  0  0
  -37.7170   14.6170  -33.3400 H   0  0  0  0  0  0  0  0  0  0  0  0
  -37.2050   13.5630  -35.5310 C   0  0  1  0  0  0  0  0  0  0  0  0
  -38.4690   13.4100  -34.9820 F   0  0  0  0  0  0  0  0  0  0  0  0
  -37.1320   13.8500  -37.0130 C   0  0  0  0  0  2  0  0  0  0  0  0
  -36.7470   12.4850  -36.4890 C   0  0  0  0  0  2  0  0  0  0  0  0
  -38.6520   13.9700  -23.7620 O   0  0  0  0  0  0  0  0  0  0  0  0
  -38.7720   15.3850  -23.6850 C   0  0  0  0  0  2  0  0  0  0  0  0
  -41.1130   16.2950  -27.1090 C   0  0  0  0  0  3  0  0  0  0  0  0
  -39.1410   16.7660  -25.7910 C   0  0  0  0  0  3  0  0  0  0  0  0
  -41.5420   15.4390  -26.0880 C   0  0  0  0  0  3  0  0  0  0  0  0
  -39.9110   17.0060  -26.9420 C   0  0  0  0  0  0  0  0  0  0  0  0
  -39.6290   15.8500  -24.8430 C   0  0  0  0  0  0  0  0  0  0  0  0
  -40.8210   15.2220  -24.9730 N   0  0  0  0  0  0  0  0  0  0  0  0
  -40.1160   18.9220  -28.5010 N   0  0  0  0  0  0  0  0  0  0  0  0
  -39.8360   19.5040  -29.8290 C   0  0  0  0  0  2  0  0  0  0  0  0
  -41.0700   19.3840  -30.7700 C   0  0  0  0  0  2  0  0  0  0  0  0
  -42.1430   18.5660  -30.1890 N   0  0  0  0  0  0  0  0  0  0  0  0
  -42.5860   18.9370  -28.8430 C   0  0  0  0  0  2  0  0  0  0  0  0
  -41.4050   19.3700  -27.9370 C   0  0  0  0  0  2  0  0  0  0  0  0
  -39.4030   17.8760  -28.0020 C   0  0  0  0  0  3  0  0  0  0  0  0
  -38.1900   17.5620  -28.4830 N   0  0  0  0  0  0  0  0  0  0  0  0
  -37.7330   16.7290  -28.1340 H   0  0  0  0  0  0  0  0  0  0  0  0
  -37.6850   18.1730  -29.1000 H   0  0  0  0  0  0  0  0  0  0  0  0
  -43.0780   17.9990  -31.0860 C   0  0  0  0  0  0  0  0  0  0  0  0
  -44.3810   18.5110  -31.2700 C   0  0  0  0  0  3  0  0  0  0  0  0
  -45.2590   17.8630  -32.1830 C   0  0  0  0  0  0  0  0  0  0  0  0
  -44.8280   16.7620  -32.8610 N   0  0  0  0  0  0  0  0  0  0  0  0
  -43.6050   16.2530  -32.6890 N   0  0  0  0  0  0  0  0  0  0  0  0
  -42.7490   16.8440  -31.8330 C   0  0  0  0  0  0  0  0  0  0  0  0
  -41.5200   16.2280  -31.6750 N   0  0  0  0  0  0  0  0  0  0  0  0
  -41.0470   16.5140  -30.8290 H   0  0  0  0  0  0  0  0  0  0  0  0
  -41.4970   15.2340  -31.8520 H   0  0  0  0  0  0  0  0  0  0  0  0
  -46.6690   18.3130  -32.4510 C   0  0  0  0  0  0  0  0  0  0  0  0
  -47.5890   17.6310  -33.3150 C   0  0  0  0  0  0  0  0  0  0  0  0
  -48.9050   18.1020  -33.5020 C   0  0  0  0  0  3  0  0  0  0  0  0
  -49.3530   19.2590  -32.8470 C   0  0  0  0  0  3  0  0  0  0  0  0
  -48.4740   19.9520  -32.0050 C   0  0  0  0  0  3  0  0  0  0  0  0
  -47.1600   19.4850  -31.8160 C   0  0  0  0  0  3  0  0  0  0  0  0
  -47.2670   16.4960  -34.0050 O   0  0  0  0  0  0  0  0  0  0  0  0
  -46.3560   16.2510  -33.8410 H   0  0  0  0  0  0  0  0  0  0  0  0
  1  2  1  0
  2  3  2  0
  3  9  1  0
  4  6  2  0
  5  4  1  0
  5  1  2  0
  6  3  1  0
  7 12  1  0
  7 10  1  0
  8 10  2  0
  9 11  1  0
  9  7  2  0
 11  8  1  0
 13  5  1  0
 14 15  2  0
 14 16  1  0
 16 13  1  0
 17 16  1  0
 18 22  2  0
 18 21  1  0
 19 23  1  0
 19 14  1  0
 20 21  1  0
 20 24  1  0
 21 19  1  0
 24 25  1  0
 24 23  1  0
 26 25  1  0
 27 31  1  0
 27 18  1  0
 31 29  1  6
 31 30  1  0
 31 28  1  0
 32 35  1  0
 32 27  1  0
 33 32  1  0
 34 33  2  0
 36 37  1  1
 36 33  1  0
 38 39  1  0
 38 36  1  0
 39 36  1  0
 40  1  1  0
 40 41  1  0
 42 45  2  0
 42 44  1  0
 43 46  2  0
 44 47  2  0
 45 43  1  0
 46 41  1  0
 47 46  1  0
 48 54  1  0
 48 53  1  0
 49 48  1  0
 50 51  1  0
 50 49  1  0
 51 52  1  0
 52 53  1  0
 54 55  1  0
 54 45  1  0
 55 56  1  0
 57 55  1  0
 58 51  1  0
 59 58  1  0
 60 59  2  0
 61 62  2  0
 61 60  1  0
 62 63  1  0
 63 64  1  0
 63 58  2  0
 64 65  1  0
 66 64  1  0
 67 60  1  0
 67 72  1  0
 68 67  2  0
 69 68  1  0
 69 70  2  0
 70 71  1  0
 71 72  2  0
 73 74  1  0
 73 68  1  0
M  ISO  4  40 101  41 101  48 100  54 100
M  END
>  <TORSDO>  (179) 
F 16

>  <SCORE>  (179) 
-14.474

>  <name>  (179) 
178

>  <ligand_id>  (179) 
178

>  <original_smiles>  (179) 
[H]Oc1c([H])c([H])c([H])c([H])c1-c1nnc(N([H])[H])c(N2C([H])([H])C([H])([H])N(C(c3c([H])c([H])nc(C([H])([H])Oc4c([H])c(-c5sc([H])nc5C([H])([H])[H])c([H])c([H])c4C([H])([H])N([H])C(=O)C4([H])N(C(=O)C([H])(N([H])C(=O)C5(F)C([H])([H])C5([H])[H])C(C([H])([H])[H])(C([H])([H])[H])C([H])([H])[H])C([H])([H])C([H])(O[H])C4([H])[H])c3[H])=[N+]([H])[H])C([H])([H])C2([H])[H])c1[H]

>  <smiles>  (179) 
[H]Oc1c([H])c([H])c([H])c([H])c1-c1nnc(N([H])[H])c(N2C([H])([H])C([H])([H])N(C(c3c([H])c([H])nc(C([H])([H])Oc4c([H])c(-c5sc([H])nc5C([H])([H])[H])c([H])c([H])c4C([H])([H])N([H])C(=O)C4([H])N(C(=O)C([H])(N([H])C(=O)C5(F)C([H])([H])C5([H])[H])C(C([H])([H])[H])(C([H])([H])[H])C([H])([H])[H])C([H])([H])C([H])(O[H])C4([H])[H])c3[H])=[N+]([H])[H])C([H])([H])C2([H])[H])c1[H]

$$$$
179:0:0
     RDKit          3D

 72 79  0  0  1  0  0  0  0  0999 V2000
  -37.4000   13.6140  -23.7620 C   0  0  0  0  0  0  0  0  0  0  0  0
  -36.7380   13.5190  -22.5040 C   0  0  0  0  0  3  0  0  0  0  0  0
  -35.4960   12.8400  -22.3630 C   0  0  0  0  0  0  0  0  0  0  0  0
  -35.5850   12.2920  -24.7410 C   0  0  0  0  0  3  0  0  0  0  0  0
  -36.8340   12.9400  -24.8740 C   0  0  0  0  0  0  0  0  0  0  0  0
  -34.9170   12.2580  -23.5070 C   0  0  0  0  0  3  0  0  0  0  0  0
  -35.2820   12.2580  -19.8510 C   0  0  0  0  0  0  0  0  0  0  0  0
  -33.1130   12.6040  -19.2960 C   0  0  0  0  0  3  0  0  0  0  0  0
  -34.8080   12.7000  -21.0710 C   0  0  0  0  0  0  0  0  0  0  0  0
  -34.3050   12.2120  -18.8500 N   0  0  0  0  0  0  0  0  0  0  0  0
  -33.0980   13.0720  -20.9850 S   0  0  0  0  0  0  0  0  0  0  0  0
  -36.6680   11.8160  -19.5030 C   0  0  0  0  0  1  0  0  0  0  0  0
  -37.5930   12.8490  -26.1970 C   0  0  0  0  0  2  0  0  0  0  0  0
  -36.1960   13.6710  -28.0660 C   0  0  0  0  0  0  0  0  0  0  0  0
  -36.4630   14.8620  -27.8840 O   0  0  0  0  0  0  0  0  0  0  0  0
  -36.7340   12.6780  -27.3560 N   0  0  0  0  0  0  0  0  0  0  0  0
  -36.4750   11.7300  -27.5950 H   0  0  0  0  0  0  0  0  0  0  0  0
  -36.1320   14.4230  -31.0830 C   0  0  0  0  0  0  0  0  0  0  0  0
  -35.1480   13.2470  -29.1050 C   0  0  0  0  0  3  0  0  0  0  0  0
  -33.6760   14.4820  -30.5640 C   0  0  0  0  0  2  0  0  0  0  0  0
  -35.0720   14.1200  -30.2890 N   0  0  0  0  0  0  0  0  0  0  0  0
  -37.2540   13.9450  -30.8770 O   0  0  0  0  0  0  0  0  0  0  0  0
  -33.7520   13.2970  -28.4610 C   0  0  0  0  0  2  0  0  0  0  0  0
  -32.8230   13.6610  -29.5990 C   0  0  0  0  0  3  0  0  0  0  0  0
  -32.3760   12.4920  -30.2720 O   0  0  0  0  0  0  0  0  0  0  0  0
  -33.1370   12.0200  -30.5950 H   0  0  0  0  0  0  0  0  0  0  0  0
  -35.9460   15.3500  -32.3140 C   0  0  0  0  0  3  0  0  0  0  0  0
  -35.7040   17.4500  -30.8270 C   0  0  0  0  0  1  0  0  0  0  0  0
  -36.0030   17.6940  -33.2810 C   0  0  0  0  0  1  0  0  0  0  0  0
  -37.9280   16.9660  -31.8550 C   0  0  0  0  0  1  0  0  0  0  0  0
  -36.4030   16.8340  -32.0630 C   0  0  1  0  0  0  0  0  0  0  0  0
  -36.7050   14.7550  -33.4270 N   0  0  0  0  0  0  0  0  0  0  0  0
  -36.1970   14.2070  -34.5380 C   0  0  0  0  0  0  0  0  0  0  0  0
  -34.9880   14.2160  -34.7810 O   0  0  0  0  0  0  0  0  0  0  0  0
  -37.7010   14.6440  -33.2870 H   0  0  0  0  0  0  0  0  0  0  0  0
  -37.1980   13.5760  -35.4710 C   0  0  1  0  0  0  0  0  0  0  0  0
  -38.4700   13.4550  -34.9340 F   0  0  0  0  0  0  0  0  0  0  0  0
  -37.1040   13.8500  -36.9540 C   0  0  0  0  0  2  0  0  0  0  0  0
  -36.7550   12.4800  -36.4160 C   0  0  0  0  0  2  0  0  0  0  0  0
  -38.6050   14.2990  -23.8920 O   0  0  0  0  0  0  0  0  0  0  0  0
  -37.9690   17.7330  -25.2640 C   0  0  0  0  0  3  0  0  0  0  0  0
  -37.8320   16.5920  -24.4360 C   0  0  0  0  0  3  0  0  0  0  0  0
  -39.7680   16.6350  -26.3850 C   0  0  0  0  0  3  0  0  0  0  0  0
  -38.9370   17.7790  -26.3030 C   0  0  0  0  0  0  0  0  0  0  0  0
  -38.6820   15.4890  -24.6320 C   0  0  0  0  0  0  0  0  0  0  0  0
  -39.6740   15.5520  -25.5560 N   0  0  0  0  0  0  0  0  0  0  0  0
  -39.0010   20.3270  -26.5740 C   0  0  0  0  0  1  0  0  0  0  0  0
  -37.6060   18.9210  -28.0890 C   0  0  0  0  0  1  0  0  0  0  0  0
  -38.9580   18.9740  -27.3280 C   0  0  1  0  0  0  0  0  0  0  0  0
  -40.0820   18.9570  -28.3240 N   0  0  0  0  0  0  0  0  0  0  0  0
  -39.8480   19.4850  -29.6960 C   0  0  0  0  0  2  0  0  0  0  0  0
  -41.1110   19.5250  -30.6200 C   0  0  0  0  0  2  0  0  0  0  0  0
  -42.1610   18.6440  -30.1230 N   0  0  0  0  0  0  0  0  0  0  0  0
  -42.5260   18.7950  -28.7150 C   0  0  0  0  0  2  0  0  0  0  0  0
  -41.3950   19.4470  -27.8690 C   0  0  0  0  0  2  0  0  0  0  0  0
  -43.0710   18.0400  -31.0220 C   0  0  0  0  0  0  0  0  0  0  0  0
  -44.3760   18.5340  -31.2300 C   0  0  0  0  0  3  0  0  0  0  0  0
  -45.2420   17.8530  -32.1320 C   0  0  0  0  0  0  0  0  0  0  0  0
  -44.7980   16.7320  -32.7690 N   0  0  0  0  0  0  0  0  0  0  0  0
  -43.5730   16.2360  -32.5680 N   0  0  0  0  0  0  0  0  0  0  0  0
  -42.7270   16.8640  -31.7250 C   0  0  0  0  0  0  0  0  0  0  0  0
  -41.4920   16.2680  -31.5360 N   0  0  0  0  0  0  0  0  0  0  0  0
  -41.0240   16.6210  -30.7100 H   0  0  0  0  0  0  0  0  0  0  0  0
  -41.4450   15.2670  -31.6610 H   0  0  0  0  0  0  0  0  0  0  0  0
  -46.6510   18.2880  -32.4310 C   0  0  0  0  0  0  0  0  0  0  0  0
  -47.5660   17.5670  -33.2690 C   0  0  0  0  0  0  0  0  0  0  0  0
  -48.8790   18.0290  -33.4860 C   0  0  0  0  0  3  0  0  0  0  0  0
  -49.3320   19.2140  -32.8890 C   0  0  0  0  0  3  0  0  0  0  0  0
  -48.4590   19.9480  -32.0730 C   0  0  0  0  0  3  0  0  0  0  0  0
  -47.1460   19.4890  -31.8540 C   0  0  0  0  0  3  0  0  0  0  0  0
  -47.2410   16.4020  -33.9060 O   0  0  0  0  0  0  0  0  0  0  0  0
  -46.3300   16.1640  -33.7310 H   0  0  0  0  0  0  0  0  0  0  0  0
  1  2  1  0
  2  3  2  0
  3  9  1  0
  4  6  2  0
  5  4  1  0
  5  1  2  0
  6  3  1  0
  7 12  1  0
  7 10  1  0
  8 10  2  0
  9 11  1  0
  9  7  2  0
 11  8  1  0
 13  5  1  0
 14 15  2  0
 14 16  1  0
 16 13  1  0
 17 16  1  0
 18 22  2  0
 18 21  1  0
 19 23  1  0
 19 14  1  0
 20 21  1  0
 20 24  1  0
 21 19  1  0
 24 25  1  0
 24 23  1  0
 26 25  1  0
 27 31  1  0
 27 18  1  0
 31 29  1  6
 31 30  1  0
 31 28  1  0
 32 35  1  0
 32 27  1  0
 33 32  1  0
 34 33  2  0
 36 37  1  1
 36 33  1  0
 38 39  1  0
 38 36  1  0
 39 36  1  0
 40  1  1  0
 41 42  2  0
 43 44  2  0
 43 46  1  0
 44 41  1  0
 45 42  1  0
 45 40  1  0
 46 45  2  0
 49 48  1  6
 49 47  1  0
 49 44  1  0
 50 55  1  0
 50 49  1  0
 51 50  1  0
 52 53  1  0
 52 51  1  0
 53 54  1  0
 54 55  1  0
 56 53  1  0
 57 56  1  0
 58 57  2  0
 59 60  2  0
 59 58  1  0
 60 61  1  0
 61 62  1  0
 61 56  2  0
 62 63  1  0
 64 62  1  0
 65 58  1  0
 65 70  1  0
 66 65  2  0
 67 66  1  0
 67 68  2  0
 68 69  1  0
 69 70  2  0
 71 72  1  0
 71 66  1  0
M  ISO  4  40 101  45 101  49 100  50 100
M  END
>  <TORSDO>  (180) 
F 16

>  <SCORE>  (180) 
-14.352

>  <name>  (180) 
179

>  <ligand_id>  (180) 
179

>  <original_smiles>  (180) 
[H]Oc1c([H])c([H])c([H])c([H])c1-c1nnc(N([H])[H])c(N2C([H])([H])C([H])([H])N(C(c3c([H])nc(Oc4c([H])c(-c5sc([H])nc5C([H])([H])[H])c([H])c([H])c4C([H])([H])N([H])C(=O)C4([H])N(C(=O)C([H])(N([H])C(=O)C5(F)C([H])([H])C5([H])[H])C(C([H])([H])[H])(C([H])([H])[H])C([H])([H])[H])C([H])([H])C([H])(O[H])C4([H])[H])c([H])c3[H])(C([H])([H])[H])C([H])([H])[H])C([H])([H])C2([H])[H])c1[H]

>  <smiles>  (180) 
[H]Oc1c([H])c([H])c([H])c([H])c1-c1nnc(N([H])[H])c(N2C([H])([H])C([H])([H])N(C(c3c([H])nc(Oc4c([H])c(-c5sc([H])nc5C([H])([H])[H])c([H])c([H])c4C([H])([H])N([H])C(=O)C4([H])N(C(=O)C([H])(N([H])C(=O)C5(F)C([H])([H])C5([H])[H])C(C([H])([H])[H])(C([H])([H])[H])C([H])([H])[H])C([H])([H])C([H])(O[H])C4([H])[H])c([H])c3[H])(C([H])([H])[H])C([H])([H])[H])C([H])([H])C2([H])[H])c1[H]

$$$$
180:0:0
     RDKit          3D

 73 80  0  0  1  0  0  0  0  0999 V2000
  -37.3850   13.5650  -23.7550 C   0  0  0  0  0  0  0  0  0  0  0  0
  -36.7180   13.4770  -22.5050 C   0  0  0  0  0  3  0  0  0  0  0  0
  -35.4760   12.8040  -22.3800 C   0  0  0  0  0  0  0  0  0  0  0  0
  -35.5750   12.2770  -24.7660 C   0  0  0  0  0  3  0  0  0  0  0  0
  -36.8290   12.9180  -24.8800 C   0  0  0  0  0  0  0  0  0  0  0  0
  -34.9020   12.2340  -23.5340 C   0  0  0  0  0  3  0  0  0  0  0  0
  -35.2590   12.2140  -19.8750 C   0  0  0  0  0  0  0  0  0  0  0  0
  -33.0870   12.5530  -19.3260 C   0  0  0  0  0  3  0  0  0  0  0  0
  -34.7860   12.6600  -21.0940 C   0  0  0  0  0  0  0  0  0  0  0  0
  -34.2800   12.1600  -18.8790 N   0  0  0  0  0  0  0  0  0  0  0  0
  -33.0770   13.0380  -21.0100 S   0  0  0  0  0  0  0  0  0  0  0  0
  -36.6440   11.7710  -19.5230 C   0  0  0  0  0  1  0  0  0  0  0  0
  -37.5910   12.9090  -26.2010 C   0  0  0  0  0  2  0  0  0  0  0  0
  -36.2050   13.6990  -28.0880 C   0  0  0  0  0  0  0  0  0  0  0  0
  -36.4640   14.8920  -27.9120 O   0  0  0  0  0  0  0  0  0  0  0  0
  -36.7460   12.7140  -27.3680 N   0  0  0  0  0  0  0  0  0  0  0  0
  -36.4970   11.7620  -27.5970 H   0  0  0  0  0  0  0  0  0  0  0  0
  -36.1490   14.4530  -31.1000 C   0  0  0  0  0  0  0  0  0  0  0  0
  -35.1630   13.2660  -29.1290 C   0  0  0  0  0  3  0  0  0  0  0  0
  -33.6910   14.5010  -30.5900 C   0  0  0  0  0  2  0  0  0  0  0  0
  -35.0870   14.1430  -30.3120 N   0  0  0  0  0  0  0  0  0  0  0  0
  -37.2730   13.9810  -30.8920 O   0  0  0  0  0  0  0  0  0  0  0  0
  -33.7650   13.3090  -28.4910 C   0  0  0  0  0  2  0  0  0  0  0  0
  -32.8380   13.6730  -29.6310 C   0  0  0  0  0  3  0  0  0  0  0  0
  -32.4050   12.5040  -30.3090 O   0  0  0  0  0  0  0  0  0  0  0  0
  -33.1710   12.0380  -30.6280 H   0  0  0  0  0  0  0  0  0  0  0  0
  -35.9650   15.3840  -32.3280 C   0  0  0  0  0  3  0  0  0  0  0  0
  -35.7530   17.4780  -30.8290 C   0  0  0  0  0  1  0  0  0  0  0  0
  -36.0080   17.7320  -33.2840 C   0  0  0  0  0  1  0  0  0  0  0  0
  -37.9580   16.9920  -31.8990 C   0  0  0  0  0  1  0  0  0  0  0  0
  -36.4300   16.8650  -32.0790 C   0  0  1  0  0  0  0  0  0  0  0  0
  -36.7170   14.7860  -33.4440 N   0  0  0  0  0  0  0  0  0  0  0  0
  -36.2030   14.2460  -34.5580 C   0  0  0  0  0  0  0  0  0  0  0  0
  -34.9930   14.2670  -34.7970 O   0  0  0  0  0  0  0  0  0  0  0  0
  -37.7130   14.6690  -33.3070 H   0  0  0  0  0  0  0  0  0  0  0  0
  -37.1970   13.6100  -35.4940 C   0  0  1  0  0  0  0  0  0  0  0  0
  -38.4680   13.4790  -34.9580 F   0  0  0  0  0  0  0  0  0  0  0  0
  -37.1040   13.8910  -36.9760 C   0  0  0  0  0  2  0  0  0  0  0  0
  -36.7440   12.5220  -36.4430 C   0  0  0  0  0  2  0  0  0  0  0  0
  -38.5550   14.2850  -23.9190 O   0  0  0  0  0  0  0  0  0  0  0  0
  -38.3990   15.7200  -23.8060 C   0  0  0  0  0  2  0  0  0  0  0  0
  -39.5510   16.0580  -26.0880 C   0  0  0  0  0  3  0  0  0  0  0  0
  -38.7600   16.5820  -25.0470 C   0  0  0  0  0  0  0  0  0  0  0  0
  -39.9150   16.8270  -27.2180 C   0  0  0  0  0  0  0  0  0  0  0  0
  -38.3480   17.9430  -25.1580 C   0  0  0  0  0  0  0  0  0  0  0  0
  -38.7260   18.7360  -26.2900 C   0  0  0  0  0  0  0  0  0  0  0  0
  -39.5510   18.2000  -27.3220 C   0  0  0  0  0  0  0  0  0  0  0  0
  -40.7150   16.1250  -28.2930 C   0  0  0  0  0  1  0  0  0  0  0  0
  -37.5230   18.5700  -24.0350 C   0  0  0  0  0  1  0  0  0  0  0  0
  -38.2680   20.1910  -26.3780 C   0  0  0  0  0  1  0  0  0  0  0  0
  -40.1440   19.0790  -28.2760 N   0  0  0  0  0  0  0  0  0  0  0  0
  -39.7650   19.2440  -29.6920 C   0  0  0  0  0  2  0  0  0  0  0  0
  -41.0000   19.3630  -30.6520 C   0  0  0  0  0  2  0  0  0  0  0  0
  -42.1630   18.6440  -30.1250 N   0  0  0  0  0  0  0  0  0  0  0  0
  -42.5920   18.9670  -28.7620 C   0  0  0  0  0  2  0  0  0  0  0  0
  -41.4600   19.5860  -27.9030 C   0  0  0  0  0  2  0  0  0  0  0  0
  -43.0840   18.0440  -31.0160 C   0  0  0  0  0  0  0  0  0  0  0  0
  -44.3900   18.5470  -31.2070 C   0  0  0  0  0  3  0  0  0  0  0  0
  -45.2730   17.8720  -32.0930 C   0  0  0  0  0  0  0  0  0  0  0  0
  -44.8490   16.7490  -32.7360 N   0  0  0  0  0  0  0  0  0  0  0  0
  -43.6260   16.2470  -32.5580 N   0  0  0  0  0  0  0  0  0  0  0  0
  -42.7600   16.8670  -31.7330 C   0  0  0  0  0  0  0  0  0  0  0  0
  -41.5300   16.2570  -31.5860 N   0  0  0  0  0  0  0  0  0  0  0  0
  -41.0280   16.6030  -30.7800 H   0  0  0  0  0  0  0  0  0  0  0  0
  -41.5130   15.2550  -31.7040 H   0  0  0  0  0  0  0  0  0  0  0  0
  -46.6830   18.3170  -32.3700 C   0  0  0  0  0  0  0  0  0  0  0  0
  -47.6120   17.6040  -33.2000 C   0  0  0  0  0  0  0  0  0  0  0  0
  -48.9250   18.0740  -33.3980 C   0  0  0  0  0  3  0  0  0  0  0  0
  -49.3630   19.2580  -32.7900 C   0  0  0  0  0  3  0  0  0  0  0  0
  -48.4770   19.9820  -31.9820 C   0  0  0  0  0  3  0  0  0  0  0  0
  -47.1640   19.5170  -31.7820 C   0  0  0  0  0  3  0  0  0  0  0  0
  -47.2990   16.4390  -33.8430 O   0  0  0  0  0  0  0  0  0  0  0  0
  -46.3870   16.1990  -33.6740 H   0  0  0  0  0  0  0  0  0  0  0  0
  1  2  1  0
  2  3  2  0
  3  9  1  0
  4  6  2  0
  5  4  1  0
  5  1  2  0
  6  3  1  0
  7 12  1  0
  7 10  1  0
  8 10  2  0
  9 11  1  0
  9  7  2  0
 11  8  1  0
 13  5  1  0
 14 15  2  0
 14 16  1  0
 16 13  1  0
 17 16  1  0
 18 22  2  0
 18 21  1  0
 19 23  1  0
 19 14  1  0
 20 21  1  0
 20 24  1  0
 21 19  1  0
 24 25  1  0
 24 23  1  0
 26 25  1  0
 27 31  1  0
 27 18  1  0
 31 29  1  6
 31 30  1  0
 31 28  1  0
 32 35  1  0
 32 27  1  0
 33 32  1  0
 34 33  2  0
 36 37  1  1
 36 33  1  0
 38 39  1  0
 38 36  1  0
 39 36  1  0
 40 41  1  0
 40  1  1  0
 42 43  1  0
 43 41  1  0
 44 42  2  0
 45 43  2  0
 45 49  1  0
 46 45  1  0
 47 44  1  0
 47 46  2  0
 48 44  1  0
 50 46  1  0
 51 56  1  0
 51 47  1  0
 52 51  1  0
 53 54  1  0
 53 52  1  0
 54 55  1  0
 55 56  1  0
 57 54  1  0
 58 57  1  0
 59 58  2  0
 60 61  2  0
 60 59  1  0
 61 62  1  0
 62 63  1  0
 62 57  2  0
 63 64  1  0
 65 63  1  0
 66 59  1  0
 66 71  1  0
 67 66  2  0
 68 67  1  0
 68 69  2  0
 69 70  1  0
 70 71  2  0
 72 73  1  0
 72 67  1  0
M  ISO  4  40 101  41 101  47 100  51 100
M  END
>  <TORSDO>  (181) 
F 16

>  <SCORE>  (181) 
-14.415

>  <name>  (181) 
180

>  <ligand_id>  (181) 
180

>  <original_smiles>  (181) 
[H]Oc1c([H])c([H])c([H])c([H])c1-c1nnc(N([H])[H])c(N2C([H])([H])C([H])([H])N(c3c(C([H])([H])[H])c([H])c(C([H])([H])Oc4c([H])c(-c5sc([H])nc5C([H])([H])[H])c([H])c([H])c4C([H])([H])N([H])C(=O)C4([H])N(C(=O)C([H])(N([H])C(=O)C5(F)C([H])([H])C5([H])[H])C(C([H])([H])[H])(C([H])([H])[H])C([H])([H])[H])C([H])([H])C([H])(O[H])C4([H])[H])c(C([H])([H])[H])c3C([H])([H])[H])C([H])([H])C2([H])[H])c1[H]

>  <smiles>  (181) 
[H]Oc1c([H])c([H])c([H])c([H])c1-c1nnc(N([H])[H])c(N2C([H])([H])C([H])([H])N(c3c(C([H])([H])[H])c([H])c(C([H])([H])Oc4c([H])c(-c5sc([H])nc5C([H])([H])[H])c([H])c([H])c4C([H])([H])N([H])C(=O)C4([H])N(C(=O)C([H])(N([H])C(=O)C5(F)C([H])([H])C5([H])[H])C(C([H])([H])[H])(C([H])([H])[H])C([H])([H])[H])C([H])([H])C([H])(O[H])C4([H])[H])c(C([H])([H])[H])c3C([H])([H])[H])C([H])([H])C2([H])[H])c1[H]

$$$$
181:0:0
     RDKit          3D

 76 84  0  0  1  0  0  0  0  0999 V2000
  -37.3600   13.4970  -23.7510 C   0  0  0  0  0  0  0  0  0  0  0  0
  -36.6740   13.4650  -22.5130 C   0  0  0  0  0  3  0  0  0  0  0  0
  -35.3850   12.9030  -22.3980 C   0  0  0  0  0  0  0  0  0  0  0  0
  -35.4520   12.3920  -24.7860 C   0  0  0  0  0  3  0  0  0  0  0  0
  -36.7520   12.9260  -24.8970 C   0  0  0  0  0  0  0  0  0  0  0  0
  -34.7680   12.3950  -23.5560 C   0  0  0  0  0  3  0  0  0  0  0  0
  -35.1620   12.3550  -19.8810 C   0  0  0  0  0  0  0  0  0  0  0  0
  -32.9900   12.7440  -19.3490 C   0  0  0  0  0  3  0  0  0  0  0  0
  -34.6970   12.8000  -21.1070 C   0  0  0  0  0  0  0  0  0  0  0  0
  -34.1710   12.3310  -18.8940 N   0  0  0  0  0  0  0  0  0  0  0  0
  -32.9930   13.2210  -21.0330 S   0  0  0  0  0  0  0  0  0  0  0  0
  -36.5340   11.8720  -19.5300 C   0  0  0  0  0  1  0  0  0  0  0  0
  -37.5300   12.7580  -26.2140 C   0  0  0  0  0  2  0  0  0  0  0  0
  -36.2080   13.6650  -28.1300 C   0  0  0  0  0  0  0  0  0  0  0  0
  -36.5350   14.8460  -27.9740 O   0  0  0  0  0  0  0  0  0  0  0  0
  -36.6910   12.6580  -27.3960 N   0  0  0  0  0  0  0  0  0  0  0  0
  -36.4200   11.7240  -27.6750 H   0  0  0  0  0  0  0  0  0  0  0  0
  -36.1380   14.4080  -31.1530 C   0  0  0  0  0  0  0  0  0  0  0  0
  -35.1540   13.2430  -29.1690 C   0  0  0  0  0  3  0  0  0  0  0  0
  -33.6830   14.4740  -30.6290 C   0  0  0  0  0  2  0  0  0  0  0  0
  -35.0790   14.1120  -30.3570 N   0  0  0  0  0  0  0  0  0  0  0  0
  -37.2610   13.9250  -30.9460 O   0  0  0  0  0  0  0  0  0  0  0  0
  -33.7580   13.2950  -28.5270 C   0  0  0  0  0  2  0  0  0  0  0  0
  -32.8290   13.6550  -29.6640 C   0  0  0  0  0  3  0  0  0  0  0  0
  -32.3890   12.4850  -30.3270 O   0  0  0  0  0  0  0  0  0  0  0  0
  -33.1500   12.0060  -30.6380 H   0  0  0  0  0  0  0  0  0  0  0  0
  -35.9540   15.3310  -32.3880 C   0  0  0  0  0  3  0  0  0  0  0  0
  -35.8050   17.4030  -30.8530 C   0  0  0  0  0  1  0  0  0  0  0  0
  -35.9200   17.6890  -33.3100 C   0  0  0  0  0  1  0  0  0  0  0  0
  -37.9490   16.9560  -32.0440 C   0  0  0  0  0  1  0  0  0  0  0  0
  -36.4170   16.8120  -32.1450 C   0  0  1  0  0  0  0  0  0  0  0  0
  -36.7090   14.7280  -33.4990 N   0  0  0  0  0  0  0  0  0  0  0  0
  -36.1980   14.2190  -34.6310 C   0  0  0  0  0  0  0  0  0  0  0  0
  -34.9930   14.2790  -34.8900 O   0  0  0  0  0  0  0  0  0  0  0  0
  -37.6980   14.5810  -33.3470 H   0  0  0  0  0  0  0  0  0  0  0  0
  -37.1890   13.5690  -35.5600 C   0  0  1  0  0  0  0  0  0  0  0  0
  -38.4430   13.3770  -35.0010 F   0  0  0  0  0  0  0  0  0  0  0  0
  -37.1330   13.8820  -37.0370 C   0  0  0  0  0  2  0  0  0  0  0  0
  -36.7150   12.5160  -36.5420 C   0  0  0  0  0  2  0  0  0  0  0  0
  -38.6360   14.0190  -23.7500 O   0  0  0  0  0  0  0  0  0  0  0  0
  -39.5730   16.2060  -23.7410 C   0  0  0  0  0  2  0  0  0  0  0  0
  -37.8650   16.0930  -25.0560 C   0  0  0  0  0  2  0  0  0  0  0  0
  -38.9620   15.1090  -24.6010 C   0  0  0  0  0  3  0  0  0  0  0  0
  -38.4670   17.0690  -24.1260 N   0  0  0  0  0  0  0  0  0  0  0  0
  -40.0360   20.2740  -25.3860 C   0  0  0  0  0  3  0  0  0  0  0  0
  -37.8220   19.8630  -26.1790 C   0  0  0  0  0  3  0  0  0  0  0  0
  -39.0800   20.4310  -26.3870 C   0  0  0  0  0  0  0  0  0  0  0  0
  -39.9210   19.1630  -24.5360 C   0  0  0  0  0  0  0  0  0  0  0  0
  -38.7330   18.3670  -24.6320 C   0  0  0  0  0  0  0  0  0  0  0  0
  -41.1850   18.8500  -23.7340 C   0  0  0  0  0  1  0  0  0  0  0  0
  -37.6620   18.8600  -25.2910 N   0  0  0  0  0  0  0  0  0  0  0  0
  -40.1950   19.7620  -28.3830 N   0  0  0  0  0  0  0  0  0  0  0  0
  -39.9220   19.4750  -29.7930 C   0  0  0  0  0  2  0  0  0  0  0  0
  -41.1930   19.5570  -30.6420 C   0  0  0  0  0  2  0  0  0  0  0  0
  -42.1760   18.6340  -30.1040 N   0  0  0  0  0  0  0  0  0  0  0  0
  -42.6150   18.8850  -28.7470 C   0  0  0  0  0  2  0  0  0  0  0  0
  -41.4720   19.2940  -27.7990 C   0  0  0  0  0  2  0  0  0  0  0  0
  -39.5110   20.7690  -27.7700 C   0  0  0  0  0  0  0  0  0  0  0  0
  -39.0680   21.7670  -28.3330 O   0  0  0  0  0  0  0  0  0  0  0  0
  -43.0780   18.0300  -31.0060 C   0  0  0  0  0  0  0  0  0  0  0  0
  -44.3840   18.5070  -31.2230 C   0  0  0  0  0  3  0  0  0  0  0  0
  -45.2260   17.8060  -32.1400 C   0  0  0  0  0  0  0  0  0  0  0  0
  -44.7470   16.7080  -32.7890 N   0  0  0  0  0  0  0  0  0  0  0  0
  -43.5110   16.2420  -32.5820 N   0  0  0  0  0  0  0  0  0  0  0  0
  -42.6910   16.8780  -31.7210 C   0  0  0  0  0  0  0  0  0  0  0  0
  -41.4440   16.3160  -31.5270 N   0  0  0  0  0  0  0  0  0  0  0  0
  -41.0120   16.6870  -30.6900 H   0  0  0  0  0  0  0  0  0  0  0  0
  -41.4040   15.3090  -31.6040 H   0  0  0  0  0  0  0  0  0  0  0  0
  -46.6430   18.2030  -32.4430 C   0  0  0  0  0  0  0  0  0  0  0  0
  -47.5180   17.4850  -33.3300 C   0  0  0  0  0  0  0  0  0  0  0  0
  -48.8480   17.9020  -33.5470 C   0  0  0  0  0  3  0  0  0  0  0  0
  -49.3570   19.0400  -32.9050 C   0  0  0  0  0  3  0  0  0  0  0  0
  -48.5260   19.7670  -32.0400 C   0  0  0  0  0  3  0  0  0  0  0  0
  -47.2000   19.3540  -31.8230 C   0  0  0  0  0  3  0  0  0  0  0  0
  -47.1400   16.3630  -34.0130 O   0  0  0  0  0  0  0  0  0  0  0  0
  -46.2230   16.1470  -33.8370 H   0  0  0  0  0  0  0  0  0  0  0  0
  1 40  1  0
  1  2  1  0
  2  3  2  0
  3  9  1  0
  4  6  2  0
  5  4  1  0
  5  1  2  0
  6  3  1  0
  7 12  1  0
  7 10  1  0
  8 10  2  0
  9 11  1  0
  9  7  2  0
 11  8  1  0
 13  5  1  0
 14 15  2  0
 14 16  1  0
 16 13  1  0
 17 16  1  0
 18 22  2  0
 18 21  1  0
 19 23  1  0
 19 14  1  0
 20 21  1  0
 20 24  1  0
 21 19  1  0
 24 25  1  0
 24 23  1  0
 26 25  1  0
 27 31  1  0
 27 18  1  0
 31 29  1  6
 31 30  1  0
 31 28  1  0
 32 35  1  0
 32 27  1  0
 33 32  1  0
 34 33  2  0
 36 37  1  1
 36 33  1  0
 38 39  1  0
 38 36  1  0
 39 36  1  0
 42 43  1  0
 42 44  1  0
 43 40  1  0
 43 41  1  0
 44 41  1  0
 45 48  1  0
 46 51  2  0
 47 46  1  0
 47 45  2  0
 48 50  1  0
 49 48  2  0
 49 44  1  0
 51 49  1  0
 52 57  1  0
 52 58  1  0
 53 52  1  0
 54 55  1  0
 54 53  1  0
 55 56  1  0
 56 57  1  0
 58 47  1  0
 59 58  2  0
 60 55  1  0
 61 60  1  0
 62 61  2  0
 63 64  2  0
 63 62  1  0
 64 65  1  0
 65 66  1  0
 65 60  2  0
 66 67  1  0
 68 66  1  0
 69 62  1  0
 69 74  1  0
 70 69  2  0
 71 70  1  0
 71 72  2  0
 72 73  1  0
 73 74  2  0
 75 76  1  0
 75 70  1  0
M  ISO  4  40 101  43 101  52 100  58 100
M  END
>  <TORSDO>  (182) 
F 16

>  <SCORE>  (182) 
-14.457

>  <name>  (182) 
181

>  <ligand_id>  (182) 
181

>  <original_smiles>  (182) 
[H]Oc1c([H])c([H])c([H])c([H])c1-c1nnc(N([H])[H])c(N2C([H])([H])C([H])([H])N(C(=O)c3c([H])nc(N4C([H])([H])C([H])(Oc5c([H])c(-c6sc([H])nc6C([H])([H])[H])c([H])c([H])c5C([H])([H])N([H])C(=O)C5([H])N(C(=O)C([H])(N([H])C(=O)C6(F)C([H])([H])C6([H])[H])C(C([H])([H])[H])(C([H])([H])[H])C([H])([H])[H])C([H])([H])C([H])(O[H])C5([H])[H])C4([H])[H])c(C([H])([H])[H])c3[H])C([H])([H])C2([H])[H])c1[H]

>  <smiles>  (182) 
[H]Oc1c([H])c([H])c([H])c([H])c1-c1nnc(N([H])[H])c(N2C([H])([H])C([H])([H])N(C(=O)c3c([H])nc(N4C([H])([H])C([H])(Oc5c([H])c(-c6sc([H])nc6C([H])([H])[H])c([H])c([H])c5C([H])([H])N([H])C(=O)C5([H])N(C(=O)C([H])(N([H])C(=O)C6(F)C([H])([H])C6([H])[H])C(C([H])([H])[H])(C([H])([H])[H])C([H])([H])[H])C([H])([H])C([H])(O[H])C5([H])[H])C4([H])[H])c(C([H])([H])[H])c3[H])C([H])([H])C2([H])[H])c1[H]

$$$$
182:0:0
     RDKit          3D

 74 81  0  0  1  0  0  0  0  0999 V2000
  -37.4030   13.4910  -23.6960 C   0  0  0  0  0  0  0  0  0  0  0  0
  -36.7060   13.4210  -22.4650 C   0  0  0  0  0  3  0  0  0  0  0  0
  -35.4310   12.8210  -22.3790 C   0  0  0  0  0  0  0  0  0  0  0  0
  -35.5290   12.3640  -24.7800 C   0  0  0  0  0  3  0  0  0  0  0  0
  -36.8170   12.9420  -24.8600 C   0  0  0  0  0  0  0  0  0  0  0  0
  -34.8450   12.3100  -23.5540 C   0  0  0  0  0  3  0  0  0  0  0  0
  -35.2120   12.2220  -19.8790 C   0  0  0  0  0  0  0  0  0  0  0  0
  -33.0490   12.6060  -19.3250 C   0  0  0  0  0  3  0  0  0  0  0  0
  -34.7420   12.6790  -21.0950 C   0  0  0  0  0  0  0  0  0  0  0  0
  -34.2350   12.1870  -18.8820 N   0  0  0  0  0  0  0  0  0  0  0  0
  -33.0450   13.0980  -21.0070 S   0  0  0  0  0  0  0  0  0  0  0  0
  -36.5900   11.7520  -19.5290 C   0  0  0  0  0  1  0  0  0  0  0  0
  -37.5920   12.9530  -26.1770 C   0  0  0  0  0  2  0  0  0  0  0  0
  -36.2030   13.7100  -28.0870 C   0  0  0  0  0  0  0  0  0  0  0  0
  -36.4510   14.9070  -27.9210 O   0  0  0  0  0  0  0  0  0  0  0  0
  -36.7550   12.7400  -27.3530 N   0  0  0  0  0  0  0  0  0  0  0  0
  -36.5170   11.7830  -27.5750 H   0  0  0  0  0  0  0  0  0  0  0  0
  -36.1420   14.4380  -31.1090 C   0  0  0  0  0  0  0  0  0  0  0  0
  -35.1620   13.2620  -29.1270 C   0  0  0  0  0  3  0  0  0  0  0  0
  -33.6840   14.4820  -30.5990 C   0  0  0  0  0  2  0  0  0  0  0  0
  -35.0820   14.1300  -30.3170 N   0  0  0  0  0  0  0  0  0  0  0  0
  -37.2670   13.9700  -30.8980 O   0  0  0  0  0  0  0  0  0  0  0  0
  -33.7620   13.3000  -28.4930 C   0  0  0  0  0  2  0  0  0  0  0  0
  -32.8330   13.6570  -29.6360 C   0  0  0  0  0  3  0  0  0  0  0  0
  -32.4010   12.4850  -30.3090 O   0  0  0  0  0  0  0  0  0  0  0  0
  -33.1680   12.0180  -30.6240 H   0  0  0  0  0  0  0  0  0  0  0  0
  -35.9550   15.3620  -32.3410 C   0  0  0  0  0  3  0  0  0  0  0  0
  -35.7060   17.4690  -30.8670 C   0  0  0  0  0  1  0  0  0  0  0  0
  -36.0100   17.7030  -33.3190 C   0  0  0  0  0  1  0  0  0  0  0  0
  -37.9350   16.9800  -31.8880 C   0  0  0  0  0  1  0  0  0  0  0  0
  -36.4110   16.8470  -32.0970 C   0  0  1  0  0  0  0  0  0  0  0  0
  -36.7140   14.7650  -33.4530 N   0  0  0  0  0  0  0  0  0  0  0  0
  -36.2060   14.2120  -34.5630 C   0  0  0  0  0  0  0  0  0  0  0  0
  -34.9960   14.2190  -34.8040 O   0  0  0  0  0  0  0  0  0  0  0  0
  -37.7110   14.6570  -33.3140 H   0  0  0  0  0  0  0  0  0  0  0  0
  -37.2060   13.5800  -35.4950 C   0  0  1  0  0  0  0  0  0  0  0  0
  -38.4800   13.4690  -34.9580 F   0  0  0  0  0  0  0  0  0  0  0  0
  -37.1100   13.8460  -36.9790 C   0  0  0  0  0  2  0  0  0  0  0  0
  -36.7660   12.4780  -36.4340 C   0  0  0  0  0  2  0  0  0  0  0  0
  -38.6810   13.9920  -23.7790 O   0  0  0  0  0  0  0  0  0  0  0  0
  -38.9400   15.2810  -23.2180 C   0  0  0  0  0  2  0  0  0  0  0  0
  -38.4510   18.4070  -25.3560 C   0  0  0  0  0  3  0  0  0  0  0  0
  -38.3810   17.5560  -24.2360 C   0  0  0  0  0  3  0  0  0  0  0  0
  -39.2140   17.9650  -26.4550 C   0  0  0  0  0  0  0  0  0  0  0  0
  -39.0620   16.3240  -24.3140 C   0  0  0  0  0  0  0  0  0  0  0  0
  -39.8790   16.7830  -26.4590 N   0  0  0  0  0  0  0  0  0  0  0  0
  -39.8180   15.9820  -25.3910 N   0  0  0  0  0  0  0  0  0  0  0  0
  -40.1310   19.1590  -28.4360 N   0  0  0  0  0  0  0  0  0  0  0  0
  -39.9520   19.6460  -29.8200 C   0  0  0  0  0  2  0  0  0  0  0  0
  -41.2180   19.5100  -30.6970 C   0  0  0  0  0  2  0  0  0  0  0  0
  -42.2090   18.6110  -30.1100 N   0  0  0  0  0  0  0  0  0  0  0  0
  -42.6220   18.8810  -28.7330 C   0  0  0  0  0  2  0  0  0  0  0  0
  -41.4660   19.4190  -27.8490 C   0  0  0  0  0  2  0  0  0  0  0  0
  -39.0900   18.5940  -27.7700 C   0  0  0  0  0  3  0  0  0  0  0  0
  -37.8540   18.5820  -28.3080 N   0  0  0  0  0  0  0  0  0  0  0  0
  -37.1170   18.0890  -27.8290 H   0  0  0  0  0  0  0  0  0  0  0  0
  -37.6310   19.0790  -29.1530 H   0  0  0  0  0  0  0  0  0  0  0  0
  -43.1370   18.0270  -31.0050 C   0  0  0  0  0  0  0  0  0  0  0  0
  -44.4420   18.5300  -31.2080 C   0  0  0  0  0  3  0  0  0  0  0  0
  -45.3060   17.8640  -32.1200 C   0  0  0  0  0  0  0  0  0  0  0  0
  -44.8580   16.7570  -32.7810 N   0  0  0  0  0  0  0  0  0  0  0  0
  -43.6330   16.2610  -32.5940 N   0  0  0  0  0  0  0  0  0  0  0  0
  -42.7900   16.8700  -31.7360 C   0  0  0  0  0  0  0  0  0  0  0  0
  -41.5540   16.2730  -31.5640 N   0  0  0  0  0  0  0  0  0  0  0  0
  -41.1000   16.5770  -30.7130 H   0  0  0  0  0  0  0  0  0  0  0  0
  -41.5230   15.2760  -31.7180 H   0  0  0  0  0  0  0  0  0  0  0  0
  -46.7180   18.2930  -32.4080 C   0  0  0  0  0  0  0  0  0  0  0  0
  -47.6330   17.5760  -33.2480 C   0  0  0  0  0  0  0  0  0  0  0  0
  -48.9500   18.0310  -33.4530 C   0  0  0  0  0  3  0  0  0  0  0  0
  -49.4070   19.2080  -32.8400 C   0  0  0  0  0  3  0  0  0  0  0  0
  -48.5350   19.9370  -32.0210 C   0  0  0  0  0  3  0  0  0  0  0  0
  -47.2180   19.4850  -31.8150 C   0  0  0  0  0  3  0  0  0  0  0  0
  -47.3030   16.4190  -33.8970 O   0  0  0  0  0  0  0  0  0  0  0  0
  -46.3900   16.1870  -33.7240 H   0  0  0  0  0  0  0  0  0  0  0  0
  1  2  1  0
  2  3  2  0
  3  9  1  0
  4  6  2  0
  5  4  1  0
  5  1  2  0
  6  3  1  0
  7 12  1  0
  7 10  1  0
  8 10  2  0
  9 11  1  0
  9  7  2  0
 11  8  1  0
 13  5  1  0
 14 15  2  0
 14 16  1  0
 16 13  1  0
 17 16  1  0
 18 22  2  0
 18 21  1  0
 19 23  1  0
 19 14  1  0
 20 21  1  0
 20 24  1  0
 21 19  1  0
 24 25  1  0
 24 23  1  0
 26 25  1  0
 27 31  1  0
 27 18  1  0
 31 29  1  6
 31 30  1  0
 31 28  1  0
 32 35  1  0
 32 27  1  0
 33 32  1  0
 34 33  2  0
 36 37  1  1
 36 33  1  0
 38 39  1  0
 38 36  1  0
 39 36  1  0
 40  1  1  0
 40 41  1  0
 42 43  1  0
 44 42  2  0
 45 43  2  0
 45 41  1  0
 46 44  1  0
 46 47  2  0
 47 45  1  0
 48 53  1  0
 48 54  1  0
 49 48  1  0
 50 51  1  0
 50 49  1  0
 51 52  1  0
 52 53  1  0
 54 55  1  0
 54 44  1  0
 55 56  1  0
 57 55  1  0
 58 51  1  0
 59 58  1  0
 60 59  2  0
 61 62  2  0
 61 60  1  0
 62 63  1  0
 63 64  1  0
 63 58  2  0
 64 65  1  0
 66 64  1  0
 67 60  1  0
 67 72  1  0
 68 67  2  0
 69 68  1  0
 69 70  2  0
 70 71  1  0
 71 72  2  0
 73 74  1  0
 73 68  1  0
M  ISO  4  40 101  41 101  48 100  54 100
M  END
>  <TORSDO>  (183) 
F 16

>  <SCORE>  (183) 
-14.356

>  <name>  (183) 
182

>  <ligand_id>  (183) 
182

>  <original_smiles>  (183) 
[H]Oc1c([H])c([H])c([H])c([H])c1-c1nnc(N([H])[H])c(N2C([H])([H])C([H])([H])N(C(c3nnc(C([H])([H])Oc4c([H])c(-c5sc([H])nc5C([H])([H])[H])c([H])c([H])c4C([H])([H])N([H])C(=O)C4([H])N(C(=O)C([H])(N([H])C(=O)C5(F)C([H])([H])C5([H])[H])C(C([H])([H])[H])(C([H])([H])[H])C([H])([H])[H])C([H])([H])C([H])(O[H])C4([H])[H])c([H])c3[H])=[N+]([H])[H])C([H])([H])C2([H])[H])c1[H]

>  <smiles>  (183) 
[H]Oc1c([H])c([H])c([H])c([H])c1-c1nnc(N([H])[H])c(N2C([H])([H])C([H])([H])N(C(c3nnc(C([H])([H])Oc4c([H])c(-c5sc([H])nc5C([H])([H])[H])c([H])c([H])c4C([H])([H])N([H])C(=O)C4([H])N(C(=O)C([H])(N([H])C(=O)C5(F)C([H])([H])C5([H])[H])C(C([H])([H])[H])(C([H])([H])[H])C([H])([H])[H])C([H])([H])C([H])(O[H])C4([H])[H])c([H])c3[H])=[N+]([H])[H])C([H])([H])C2([H])[H])c1[H]

$$$$
183:0:0
     RDKit          3D

 75 83  0  0  1  0  0  0  0  0999 V2000
  -37.4460   13.4740  -23.7270 C   0  0  0  0  0  0  0  0  0  0  0  0
  -36.7510   13.3910  -22.4950 C   0  0  0  0  0  3  0  0  0  0  0  0
  -35.4840   12.7750  -22.4030 C   0  0  0  0  0  0  0  0  0  0  0  0
  -35.5660   12.3510  -24.8090 C   0  0  0  0  0  3  0  0  0  0  0  0
  -36.8440   12.9490  -24.8940 C   0  0  0  0  0  0  0  0  0  0  0  0
  -34.8940   12.2670  -23.5790 C   0  0  0  0  0  3  0  0  0  0  0  0
  -35.2890   12.1590  -19.9050 C   0  0  0  0  0  0  0  0  0  0  0  0
  -33.1240   12.5040  -19.3370 C   0  0  0  0  0  3  0  0  0  0  0  0
  -34.8040   12.6190  -21.1150 C   0  0  0  0  0  0  0  0  0  0  0  0
  -34.3180   12.0990  -18.9030 N   0  0  0  0  0  0  0  0  0  0  0  0
  -33.1030   13.0130  -21.0130 S   0  0  0  0  0  0  0  0  0  0  0  0
  -36.6760   11.6950  -19.5700 C   0  0  0  0  0  1  0  0  0  0  0  0
  -37.6030   13.0010  -26.2220 C   0  0  0  0  0  2  0  0  0  0  0  0
  -36.1940   13.7330  -28.1270 C   0  0  0  0  0  0  0  0  0  0  0  0
  -36.4410   14.9310  -27.9740 O   0  0  0  0  0  0  0  0  0  0  0  0
  -36.7600   12.7730  -27.3910 N   0  0  0  0  0  0  0  0  0  0  0  0
  -36.5320   11.8130  -27.6070 H   0  0  0  0  0  0  0  0  0  0  0  0
  -36.1150   14.4460  -31.1520 C   0  0  0  0  0  0  0  0  0  0  0  0
  -35.1520   13.2710  -29.1600 C   0  0  0  0  0  3  0  0  0  0  0  0
  -33.6610   14.4800  -30.6290 C   0  0  0  0  0  2  0  0  0  0  0  0
  -35.0610   14.1320  -30.3540 N   0  0  0  0  0  0  0  0  0  0  0  0
  -37.2430   13.9840  -30.9450 O   0  0  0  0  0  0  0  0  0  0  0  0
  -33.7500   13.2970  -28.5220 C   0  0  0  0  0  2  0  0  0  0  0  0
  -32.8170   13.6570  -29.6590 C   0  0  0  0  0  3  0  0  0  0  0  0
  -32.3830   12.4830  -30.3280 O   0  0  0  0  0  0  0  0  0  0  0  0
  -33.1520   12.0140  -30.6380 H   0  0  0  0  0  0  0  0  0  0  0  0
  -35.9170   15.3710  -32.3810 C   0  0  0  0  0  3  0  0  0  0  0  0
  -35.7090   17.4660  -30.8800 C   0  0  0  0  0  1  0  0  0  0  0  0
  -35.9180   17.7220  -33.3390 C   0  0  0  0  0  1  0  0  0  0  0  0
  -37.9010   17.0000  -31.9890 C   0  0  0  0  0  1  0  0  0  0  0  0
  -36.3700   16.8580  -32.1420 C   0  0  1  0  0  0  0  0  0  0  0  0
  -36.6720   14.7760  -33.4970 N   0  0  0  0  0  0  0  0  0  0  0  0
  -36.1600   14.2430  -34.6160 C   0  0  0  0  0  0  0  0  0  0  0  0
  -34.9510   14.2730  -34.8600 O   0  0  0  0  0  0  0  0  0  0  0  0
  -37.6660   14.6530  -33.3540 H   0  0  0  0  0  0  0  0  0  0  0  0
  -37.1540   13.6070  -35.5520 C   0  0  1  0  0  0  0  0  0  0  0  0
  -38.4190   13.4630  -35.0070 F   0  0  0  0  0  0  0  0  0  0  0  0
  -37.0730   13.8980  -37.0330 C   0  0  0  0  0  2  0  0  0  0  0  0
  -36.6940   12.5290  -36.5110 C   0  0  0  0  0  2  0  0  0  0  0  0
  -38.7100   14.0190  -23.8600 O   0  0  0  0  0  0  0  0  0  0  0  0
  -38.7480   17.4020  -26.0840 C   0  0  0  0  0  3  0  0  0  0  0  0
  -39.6670   19.3820  -25.1370 C   0  0  0  0  0  3  0  0  0  0  0  0
  -39.1450   18.7330  -26.2650 C   0  0  0  0  0  0  0  0  0  0  0  0
  -39.5150   17.4660  -23.9320 C   0  0  0  0  0  0  0  0  0  0  0  0
  -40.9020   14.7090  -23.0710 C   0  0  0  0  0  2  0  0  0  0  0  0
  -41.1480   16.1740  -22.6930 C   0  0  0  0  0  2  0  0  0  0  0  0
  -38.9220   15.8130  -22.2230 C   0  0  0  0  0  2  0  0  0  0  0  0
  -39.4300   14.4450  -22.7010 C   0  0  0  0  0  3  0  0  0  0  0  0
  -38.9390   16.7780  -24.9060 N   0  0  0  0  0  0  0  0  0  0  0  0
  -39.8770   18.7320  -23.9760 N   0  0  0  0  0  0  0  0  0  0  0  0
  -39.8390   16.8110  -22.7550 N   0  0  0  0  0  0  0  0  0  0  0  0
  -39.0490   19.4310  -27.6060 C   0  0  0  0  0  2  0  0  0  0  0  0
  -40.1800   19.0990  -28.4710 N   0  0  0  0  0  0  0  0  0  0  0  0
  -39.9440   19.5890  -29.8390 C   0  0  0  0  0  2  0  0  0  0  0  0
  -41.1970   19.5220  -30.7590 C   0  0  0  0  0  2  0  0  0  0  0  0
  -42.2510   18.6810  -30.1970 N   0  0  0  0  0  0  0  0  0  0  0  0
  -42.6190   18.9010  -28.7990 C   0  0  0  0  0  2  0  0  0  0  0  0
  -41.4830   19.5890  -27.9960 C   0  0  0  0  0  2  0  0  0  0  0  0
  -43.1670   18.0750  -31.0790 C   0  0  0  0  0  0  0  0  0  0  0  0
  -44.4770   18.5610  -31.2720 C   0  0  0  0  0  3  0  0  0  0  0  0
  -45.3380   17.8870  -32.1770 C   0  0  0  0  0  0  0  0  0  0  0  0
  -44.8860   16.7810  -32.8370 N   0  0  0  0  0  0  0  0  0  0  0  0
  -43.6550   16.2960  -32.6520 N   0  0  0  0  0  0  0  0  0  0  0  0
  -42.8130   16.9150  -31.8030 C   0  0  0  0  0  0  0  0  0  0  0  0
  -41.5670   16.3360  -31.6280 N   0  0  0  0  0  0  0  0  0  0  0  0
  -41.1130   16.6930  -30.7950 H   0  0  0  0  0  0  0  0  0  0  0  0
  -41.5250   15.3340  -31.7370 H   0  0  0  0  0  0  0  0  0  0  0  0
  -46.7520   18.3130  -32.4580 C   0  0  0  0  0  0  0  0  0  0  0  0
  -47.6570   17.6160  -33.3230 C   0  0  0  0  0  0  0  0  0  0  0  0
  -48.9770   18.0680  -33.5210 C   0  0  0  0  0  3  0  0  0  0  0  0
  -49.4470   19.2210  -32.8740 C   0  0  0  0  0  3  0  0  0  0  0  0
  -48.5840   19.9310  -32.0300 C   0  0  0  0  0  3  0  0  0  0  0  0
  -47.2650   19.4820  -31.8320 C   0  0  0  0  0  3  0  0  0  0  0  0
  -47.3140   16.4810  -34.0040 O   0  0  0  0  0  0  0  0  0  0  0  0
  -46.4010   16.2520  -33.8290 H   0  0  0  0  0  0  0  0  0  0  0  0
  1  2  1  0
  2  3  2  0
  3  9  1  0
  4  6  2  0
  5  4  1  0
  5  1  2  0
  6  3  1  0
  7 12  1  0
  7 10  1  0
  8 10  2  0
  9 11  1  0
  9  7  2  0
 11  8  1  0
 13  5  1  0
 14 15  2  0
 14 16  1  0
 16 13  1  0
 17 16  1  0
 18 22  2  0
 18 21  1  0
 19 23  1  0
 19 14  1  0
 20 21  1  0
 20 24  1  0
 21 19  1  0
 24 25  1  0
 24 23  1  0
 26 25  1  0
 27 31  1  0
 27 18  1  0
 31 29  1  6
 31 30  1  0
 31 28  1  0
 32 35  1  0
 32 27  1  0
 33 32  1  0
 34 33  2  0
 36 37  1  1
 36 33  1  0
 38 39  1  0
 38 36  1  0
 39 36  1  0
 40  1  1  0
 41 49  1  0
 42 50  2  0
 43 41  2  0
 43 42  1  0
 44 51  1  0
 45 48  1  0
 45 46  1  0
 48 40  1  0
 48 47  1  0
 49 44  2  0
 50 44  1  0
 51 46  1  0
 51 47  1  0
 52 43  1  0
 53 58  1  0
 53 52  1  0
 54 53  1  0
 55 56  1  0
 55 54  1  0
 56 57  1  0
 57 58  1  0
 59 56  1  0
 60 59  1  0
 61 60  2  0
 62 63  2  0
 62 61  1  0
 63 64  1  0
 64 65  1  0
 64 59  2  0
 65 66  1  0
 67 65  1  0
 68 61  1  0
 68 73  1  0
 69 68  2  0
 70 69  1  0
 70 71  2  0
 71 72  1  0
 72 73  2  0
 74 75  1  0
 74 69  1  0
M  ISO  4  40 101  48 101  52 100  53 100
M  END
>  <TORSDO>  (184) 
F 16

>  <SCORE>  (184) 
-14.429

>  <name>  (184) 
183

>  <ligand_id>  (184) 
183

>  <original_smiles>  (184) 
[H]Oc1c([H])c([H])c([H])c([H])c1-c1nnc(N([H])[H])c(N2C([H])([H])C([H])([H])N(C([H])([H])c3c([H])nc(N4C([H])([H])C([H])([H])C([H])(Oc5c([H])c(-c6sc([H])nc6C([H])([H])[H])c([H])c([H])c5C([H])([H])N([H])C(=O)C5([H])N(C(=O)C([H])(N([H])C(=O)C6(F)C([H])([H])C6([H])[H])C(C([H])([H])[H])(C([H])([H])[H])C([H])([H])[H])C([H])([H])C([H])(O[H])C5([H])[H])C4([H])[H])nc3[H])C([H])([H])C2([H])[H])c1[H]

>  <smiles>  (184) 
[H]Oc1c([H])c([H])c([H])c([H])c1-c1nnc(N([H])[H])c(N2C([H])([H])C([H])([H])N(C([H])([H])c3c([H])nc(N4C([H])([H])C([H])([H])C([H])(Oc5c([H])c(-c6sc([H])nc6C([H])([H])[H])c([H])c([H])c5C([H])([H])N([H])C(=O)C5([H])N(C(=O)C([H])(N([H])C(=O)C6(F)C([H])([H])C6([H])[H])C(C([H])([H])[H])(C([H])([H])[H])C([H])([H])[H])C([H])([H])C([H])(O[H])C5([H])[H])C4([H])[H])nc3[H])C([H])([H])C2([H])[H])c1[H]

$$$$
184:0:0
     RDKit          3D

 80 88  0  0  1  0  0  0  0  0999 V2000
  -38.6000   14.1550  -23.7790 O   0  0  0  0  0  0  0  0  0  0  0  0
  -39.3760   16.9100  -26.2130 C   0  0  0  0  0  2  0  0  0  0  0  0
  -37.4960   17.6640  -24.5360 C   0  0  0  0  0  2  0  0  0  0  0  0
  -39.7410   15.7950  -25.2180 C   0  0  0  0  0  2  0  0  0  0  0  0
  -37.9600   16.5310  -23.6070 C   0  0  0  0  0  2  0  0  0  0  0  0
  -38.5740   18.0860  -25.5800 C   0  0  0  0  0  3  0  0  0  0  0  0
  -38.4610   15.3850  -24.4870 C   0  0  0  0  0  3  0  0  0  0  0  0
  -36.8000   18.4290  -27.3460 C   0  0  0  0  0  1  0  0  0  0  0  0
  -38.0140   18.9680  -26.6530 N   0  0  2  0  0  4  0  0  0  0  0  0
  -38.7470   18.9710  -27.3620 H   0  0  0  0  0  0  0  0  0  0  0  0
  -38.3590   21.2290  -28.9490 C   0  0  0  0  0  2  0  0  0  0  0  0
  -37.3020   22.0280  -28.1840 C   0  0  0  0  0  2  0  0  0  0  0  0
  -39.3600   21.0190  -26.6070 C   0  0  0  0  0  2  0  0  0  0  0  0
  -39.6560   20.9040  -28.1240 C   0  0  0  0  0  3  0  0  0  0  0  0
  -37.9830   20.4140  -26.2580 C   0  0  0  0  0  3  0  0  0  0  0  0
  -36.8500   21.2940  -26.9030 C   0  0  0  0  0  3  0  0  0  0  0  0
  -40.2830   19.5840  -28.4240 N   0  0  0  0  0  0  0  0  0  0  0  0
  -40.2110   19.3010  -29.8730 C   0  0  0  0  0  2  0  0  0  0  0  0
  -41.4800   19.6140  -30.6550 C   0  0  0  0  0  2  0  0  0  0  0  0
  -42.5210   18.7510  -30.1460 N   0  0  0  0  0  0  0  0  0  0  0  0
  -42.6370   18.5790  -28.7020 C   0  0  0  0  0  2  0  0  0  0  0  0
  -41.7030   19.5740  -27.9510 C   0  0  0  0  0  2  0  0  0  0  0  0
  -43.3210   18.0340  -31.0510 C   0  0  0  0  0  0  0  0  0  0  0  0
  -44.6330   18.4580  -31.2810 C   0  0  0  0  0  3  0  0  0  0  0  0
  -45.4290   17.7620  -32.2240 C   0  0  0  0  0  0  0  0  0  0  0  0
  -44.8980   16.6980  -32.8950 N   0  0  0  0  0  0  0  0  0  0  0  0
  -43.6490   16.2730  -32.6820 N   0  0  0  0  0  0  0  0  0  0  0  0
  -42.8650   16.9140  -31.7870 C   0  0  0  0  0  0  0  0  0  0  0  0
  -41.5940   16.3970  -31.6120 N   0  0  0  0  0  0  0  0  0  0  0  0
  -41.1350   16.7060  -30.7670 H   0  0  0  0  0  0  0  0  0  0  0  0
  -41.4620   15.4210  -31.8370 H   0  0  0  0  0  0  0  0  0  0  0  0
  -46.8500   18.1370  -32.5220 C   0  0  0  0  0  0  0  0  0  0  0  0
  -47.7180   17.3860  -33.3800 C   0  0  0  0  0  0  0  0  0  0  0  0
  -49.0500   17.7830  -33.5970 C   0  0  0  0  0  3  0  0  0  0  0  0
  -49.5700   18.9310  -32.9800 C   0  0  0  0  0  3  0  0  0  0  0  0
  -48.7430   19.6910  -32.1430 C   0  0  0  0  0  3  0  0  0  0  0  0
  -47.4110   19.2980  -31.9240 C   0  0  0  0  0  3  0  0  0  0  0  0
  -47.3190   16.2570  -34.0370 O   0  0  0  0  0  0  0  0  0  0  0  0
  -46.4000   16.0650  -33.8550 H   0  0  0  0  0  0  0  0  0  0  0  0
  -36.3920   22.2670  -25.9810 O   0  0  0  0  0  0  0  0  0  0  0  0
  -35.5660   22.6090  -26.3130 H   0  0  0  0  0  0  0  0  0  0  0  0
  -37.3940   13.5010  -23.7150 C   0  0  0  0  0  0  0  0  0  0  0  0
  -36.7050   13.4430  -22.4850 C   0  0  0  0  0  3  0  0  0  0  0  0
  -35.4120   12.8830  -22.4000 C   0  0  0  0  0  0  0  0  0  0  0  0
  -35.5060   12.4160  -24.8030 C   0  0  0  0  0  3  0  0  0  0  0  0
  -36.8090   12.9490  -24.8820 C   0  0  0  0  0  0  0  0  0  0  0  0
  -34.8120   12.3950  -23.5800 C   0  0  0  0  0  3  0  0  0  0  0  0
  -35.1530   12.3190  -19.8990 C   0  0  0  0  0  0  0  0  0  0  0  0
  -32.9860   12.7370  -19.3760 C   0  0  0  0  0  3  0  0  0  0  0  0
  -34.7040   12.7710  -21.1250 C   0  0  0  0  0  0  0  0  0  0  0  0
  -34.1610   12.3010  -18.9140 N   0  0  0  0  0  0  0  0  0  0  0  0
  -33.0150   13.2230  -21.0580 S   0  0  0  0  0  0  0  0  0  0  0  0
  -36.5220   11.8370  -19.5310 C   0  0  0  0  0  1  0  0  0  0  0  0
  -37.5860   12.8690  -26.2010 C   0  0  0  0  0  2  0  0  0  0  0  0
  -36.2100   13.7260  -28.0960 C   0  0  0  0  0  0  0  0  0  0  0  0
  -36.4750   14.9180  -27.9170 O   0  0  0  0  0  0  0  0  0  0  0  0
  -36.7380   12.7330  -27.3770 N   0  0  0  0  0  0  0  0  0  0  0  0
  -36.4620   11.7920  -27.6270 H   0  0  0  0  0  0  0  0  0  0  0  0
  -36.1470   14.4740  -31.1130 C   0  0  0  0  0  0  0  0  0  0  0  0
  -35.1710   13.2860  -29.1400 C   0  0  0  0  0  3  0  0  0  0  0  0
  -33.6860   14.4970  -30.6090 C   0  0  0  0  0  2  0  0  0  0  0  0
  -35.0860   14.1580  -30.3260 N   0  0  0  0  0  0  0  0  0  0  0  0
  -37.2770   14.0220  -30.8930 O   0  0  0  0  0  0  0  0  0  0  0  0
  -33.7740   13.3070  -28.5040 C   0  0  0  0  0  2  0  0  0  0  0  0
  -32.8440   13.6560  -29.6490 C   0  0  0  0  0  3  0  0  0  0  0  0
  -32.4370   12.4760  -30.3260 O   0  0  0  0  0  0  0  0  0  0  0  0
  -33.2130   11.9850  -30.5770 H   0  0  0  0  0  0  0  0  0  0  0  0
  -35.9590   15.3910  -32.3520 C   0  0  0  0  0  3  0  0  0  0  0  0
  -35.6990   17.4960  -30.8880 C   0  0  0  0  0  1  0  0  0  0  0  0
  -36.0080   17.7310  -33.3370 C   0  0  0  0  0  1  0  0  0  0  0  0
  -37.9350   17.0180  -31.9020 C   0  0  0  0  0  1  0  0  0  0  0  0
  -36.4130   16.8780  -32.1120 C   0  0  1  0  0  0  0  0  0  0  0  0
  -36.7220   14.7880  -33.4580 N   0  0  0  0  0  0  0  0  0  0  0  0
  -36.2120   14.2260  -34.5650 C   0  0  0  0  0  0  0  0  0  0  0  0
  -35.0000   14.2290  -34.8030 O   0  0  0  0  0  0  0  0  0  0  0  0
  -37.7170   14.6770  -33.3080 H   0  0  0  0  0  0  0  0  0  0  0  0
  -37.2100   13.5920  -35.4980 C   0  0  1  0  0  0  0  0  0  0  0  0
  -38.4860   13.4860  -34.9660 F   0  0  0  0  0  0  0  0  0  0  0  0
  -37.1040   13.8500  -36.9840 C   0  0  0  0  0  2  0  0  0  0  0  0
  -36.7690   12.4850  -36.4330 C   0  0  0  0  0  2  0  0  0  0  0  0
  1 42  1  0
  2  6  1  0
  2  4  1  0
  3  5  1  0
  4  7  1  0
  6  9  1  0
  6  3  1  0
  7  1  1  0
  7  5  1  0
  8  9  1  0
  9 10  1  6
 11 12  1  0
 12 16  1  0
 13 15  1  0
 14 11  1  0
 14 13  1  0
 15  9  1  0
 16 15  1  0
 16 40  1  0
 17 18  1  0
 17 14  1  0
 17 22  1  0
 19 20  1  0
 19 18  1  0
 20 21  1  0
 21 22  1  0
 23 20  1  0
 24 23  1  0
 25 24  2  0
 26 27  2  0
 26 25  1  0
 27 28  1  0
 28 29  1  0
 28 23  2  0
 29 30  1  0
 31 29  1  0
 32 25  1  0
 32 37  1  0
 33 32  2  0
 34 33  1  0
 34 35  2  0
 35 36  1  0
 36 37  2  0
 38 39  1  0
 38 33  1  0
 41 40  1  0
 42 43  1  0
 43 44  2  0
 44 50  1  0
 45 47  2  0
 46 45  1  0
 46 42  2  0
 47 44  1  0
 48 53  1  0
 48 51  1  0
 49 51  2  0
 50 52  1  0
 50 48  2  0
 52 49  1  0
 54 46  1  0
 55 56  2  0
 55 57  1  0
 57 54  1  0
 58 57  1  0
 59 63  2  0
 59 62  1  0
 60 64  1  0
 60 55  1  0
 61 62  1  0
 61 65  1  0
 62 60  1  0
 65 66  1  0
 65 64  1  0
 67 66  1  0
 68 72  1  0
 68 59  1  0
 72 70  1  6
 72 71  1  0
 72 69  1  0
 73 76  1  0
 73 68  1  0
 74 73  1  0
 75 74  2  0
 77 78  1  1
 77 74  1  0
 79 80  1  0
 79 77  1  0
 80 77  1  0
M  ISO  4   1 101   7 101  14 100  17 100
M  END
>  <TORSDO>  (185) 
F 18

>  <SCORE>  (185) 
-13.972

>  <name>  (185) 
184

>  <ligand_id>  (185) 
184

>  <original_smiles>  (185) 
[H]Oc1c([H])c([H])c([H])c([H])c1-c1nnc(N([H])[H])c(N2C([H])([H])C([H])([H])N(C3([H])C([H])([H])C([H])([H])C([H])(O[H])C([H])([N+]([H])(C([H])([H])[H])C4([H])C([H])([H])C([H])([H])C([H])(Oc5c([H])c(-c6sc([H])nc6C([H])([H])[H])c([H])c([H])c5C([H])([H])N([H])C(=O)C5([H])N(C(=O)C([H])(N([H])C(=O)C6(F)C([H])([H])C6([H])[H])C(C([H])([H])[H])(C([H])([H])[H])C([H])([H])[H])C([H])([H])C([H])(O[H])C5([H])[H])C([H])([H])C4([H])[H])C3([H])[H])C([H])([H])C2([H])[H])c1[H]

>  <smiles>  (185) 
[H]Oc1c([H])c([H])c([H])c([H])c1-c1nnc(N([H])[H])c(N2C([H])([H])C([H])([H])N(C3([H])C([H])([H])C([H])([H])C([H])(O[H])C([H])([N+]([H])(C([H])([H])[H])C4([H])C([H])([H])C([H])([H])C([H])(Oc5c([H])c(-c6sc([H])nc6C([H])([H])[H])c([H])c([H])c5C([H])([H])N([H])C(=O)C5([H])N(C(=O)C([H])(N([H])C(=O)C6(F)C([H])([H])C6([H])[H])C(C([H])([H])[H])(C([H])([H])[H])C([H])([H])[H])C([H])([H])C([H])(O[H])C5([H])[H])C([H])([H])C4([H])[H])C3([H])[H])C([H])([H])C2([H])[H])c1[H]

$$$$
185:0:0
     RDKit          3D

 73 80  0  0  1  0  0  0  0  0999 V2000
  -37.4370   13.6950  -23.7660 C   0  0  0  0  0  0  0  0  0  0  0  0
  -36.7530   13.5620  -22.5130 C   0  0  0  0  0  3  0  0  0  0  0  0
  -35.5370   12.8310  -22.3550 C   0  0  0  0  0  0  0  0  0  0  0  0
  -35.6590   12.2770  -24.7200 C   0  0  0  0  0  3  0  0  0  0  0  0
  -36.8850   12.9740  -24.8600 C   0  0  0  0  0  0  0  0  0  0  0  0
  -34.9820   12.2250  -23.4950 C   0  0  0  0  0  3  0  0  0  0  0  0
  -35.2990   12.2150  -19.8460 C   0  0  0  0  0  0  0  0  0  0  0  0
  -33.1170   12.5160  -19.3090 C   0  0  0  0  0  3  0  0  0  0  0  0
  -34.8360   12.6710  -21.0660 C   0  0  0  0  0  0  0  0  0  0  0  0
  -34.3130   12.1370  -18.8570 N   0  0  0  0  0  0  0  0  0  0  0  0
  -33.1160   13.0130  -20.9900 S   0  0  0  0  0  0  0  0  0  0  0  0
  -36.6850   11.7840  -19.4840 C   0  0  0  0  0  1  0  0  0  0  0  0
  -37.5890   12.9270  -26.1930 C   0  0  0  0  0  2  0  0  0  0  0  0
  -36.2130   13.7040  -28.0740 C   0  0  0  0  0  0  0  0  0  0  0  0
  -36.4810   14.8960  -27.9120 O   0  0  0  0  0  0  0  0  0  0  0  0
  -36.7310   12.7180  -27.3390 N   0  0  0  0  0  0  0  0  0  0  0  0
  -36.4670   11.7660  -27.5530 H   0  0  0  0  0  0  0  0  0  0  0  0
  -36.1660   14.4430  -31.0850 C   0  0  0  0  0  0  0  0  0  0  0  0
  -35.1780   13.2630  -29.1130 C   0  0  0  0  0  3  0  0  0  0  0  0
  -33.7060   14.4850  -30.5760 C   0  0  0  0  0  2  0  0  0  0  0  0
  -35.1040   14.1360  -30.2960 N   0  0  0  0  0  0  0  0  0  0  0  0
  -37.2880   13.9700  -30.8740 O   0  0  0  0  0  0  0  0  0  0  0  0
  -33.7830   13.3040  -28.4720 C   0  0  0  0  0  2  0  0  0  0  0  0
  -32.8570   13.6560  -29.6150 C   0  0  0  0  0  3  0  0  0  0  0  0
  -32.4350   12.4790  -30.2840 O   0  0  0  0  0  0  0  0  0  0  0  0
  -33.2060   12.0190  -30.6000 H   0  0  0  0  0  0  0  0  0  0  0  0
  -35.9820   15.3650  -32.3180 C   0  0  0  0  0  3  0  0  0  0  0  0
  -35.8020   17.4670  -30.8240 C   0  0  0  0  0  1  0  0  0  0  0  0
  -36.0060   17.7080  -33.2860 C   0  0  0  0  0  1  0  0  0  0  0  0
  -37.9800   16.9770  -31.9360 C   0  0  0  0  0  1  0  0  0  0  0  0
  -36.4510   16.8480  -32.0860 C   0  0  1  0  0  0  0  0  0  0  0  0
  -36.7260   14.7550  -33.4310 N   0  0  0  0  0  0  0  0  0  0  0  0
  -36.2050   14.2200  -34.5440 C   0  0  0  0  0  0  0  0  0  0  0  0
  -34.9970   14.2560  -34.7840 O   0  0  0  0  0  0  0  0  0  0  0  0
  -37.7190   14.6250  -33.2940 H   0  0  0  0  0  0  0  0  0  0  0  0
  -37.1910   13.5680  -35.4780 C   0  0  1  0  0  0  0  0  0  0  0  0
  -38.4600   13.4190  -34.9400 F   0  0  0  0  0  0  0  0  0  0  0  0
  -37.1050   13.8500  -36.9610 C   0  0  0  0  0  2  0  0  0  0  0  0
  -36.7250   12.4870  -36.4290 C   0  0  0  0  0  2  0  0  0  0  0  0
  -38.4870   14.6460  -23.8350 O   0  0  0  0  0  0  0  0  0  0  0  0
  -39.7280   14.7200  -24.6450 C   0  0  0  0  0  2  0  0  0  0  0  0
  -39.9060   15.4090  -26.0880 C   0  0  0  0  0  0  0  0  0  0  0  0
  -40.4960   14.6190  -27.1200 C   0  0  0  0  0  0  0  0  0  0  0  0
  -39.7050   16.8060  -26.4550 C   0  0  0  0  0  0  0  0  0  0  0  0
  -40.4790   15.0920  -28.4460 C   0  0  0  0  0  0  0  0  0  0  0  0
  -39.9510   17.2800  -27.8160 C   0  0  0  0  0  0  0  0  0  0  0  0
  -41.2060   13.2840  -26.8560 C   0  0  0  0  0  1  0  0  0  0  0  0
  -40.7730   14.1440  -29.5950 C   0  0  0  0  0  1  0  0  0  0  0  0
  -40.2270   16.3730  -28.7790 N   0  0  0  0  0  0  0  0  0  0  0  0
  -39.2180   17.9290  -25.2330 Cl  0  0  0  0  0  0  0  0  0  0  0  0
  -39.9920   18.6690  -28.2630 N   0  0  0  0  0  0  0  0  0  0  0  0
  -39.6220   19.0560  -29.6590 C   0  0  0  0  0  2  0  0  0  0  0  0
  -40.8180   19.2610  -30.6570 C   0  0  0  0  0  2  0  0  0  0  0  0
  -42.0540   18.6580  -30.1610 N   0  0  0  0  0  0  0  0  0  0  0  0
  -42.4330   18.9380  -28.7750 C   0  0  0  0  0  2  0  0  0  0  0  0
  -41.2270   19.3700  -27.8890 C   0  0  0  0  0  2  0  0  0  0  0  0
  -42.9800   18.0600  -31.0490 C   0  0  0  0  0  0  0  0  0  0  0  0
  -44.2950   18.5450  -31.1950 C   0  0  0  0  0  3  0  0  0  0  0  0
  -45.1860   17.8920  -32.0920 C   0  0  0  0  0  0  0  0  0  0  0  0
  -44.7620   16.7970  -32.7820 N   0  0  0  0  0  0  0  0  0  0  0  0
  -43.5270   16.3100  -32.6480 N   0  0  0  0  0  0  0  0  0  0  0  0
  -42.6540   16.9210  -31.8210 C   0  0  0  0  0  0  0  0  0  0  0  0
  -41.4040   16.3490  -31.7490 N   0  0  0  0  0  0  0  0  0  0  0  0
  -40.9150   16.5780  -30.8820 H   0  0  0  0  0  0  0  0  0  0  0  0
  -41.3540   15.3780  -32.0130 H   0  0  0  0  0  0  0  0  0  0  0  0
  -46.6030   18.3340  -32.3300 C   0  0  0  0  0  0  0  0  0  0  0  0
  -47.5420   17.6410  -33.1640 C   0  0  0  0  0  0  0  0  0  0  0  0
  -48.8630   18.1070  -33.3210 C   0  0  0  0  0  3  0  0  0  0  0  0
  -49.2960   19.2690  -32.6680 C   0  0  0  0  0  3  0  0  0  0  0  0
  -48.3980   19.9750  -31.8560 C   0  0  0  0  0  3  0  0  0  0  0  0
  -47.0790   19.5140  -31.6970 C   0  0  0  0  0  3  0  0  0  0  0  0
  -47.2340   16.5000  -33.8500 O   0  0  0  0  0  0  0  0  0  0  0  0
  -46.3170   16.2630  -33.7100 H   0  0  0  0  0  0  0  0  0  0  0  0
  1  2  1  0
  2  3  2  0
  3  9  1  0
  4  6  2  0
  5  4  1  0
  5  1  2  0
  6  3  1  0
  7 12  1  0
  7 10  1  0
  8 10  2  0
  9 11  1  0
  9  7  2  0
 11  8  1  0
 13  5  1  0
 14 15  2  0
 14 16  1  0
 16 13  1  0
 17 16  1  0
 18 22  2  0
 18 21  1  0
 19 23  1  0
 19 14  1  0
 20 21  1  0
 20 24  1  0
 21 19  1  0
 24 25  1  0
 24 23  1  0
 26 25  1  0
 27 31  1  0
 27 18  1  0
 31 29  1  6
 31 30  1  0
 31 28  1  0
 32 35  1  0
 32 27  1  0
 33 32  1  0
 34 33  2  0
 36 37  1  1
 36 33  1  0
 38 39  1  0
 38 36  1  0
 39 36  1  0
 40  1  1  0
 41 40  1  0
 42 41  1  0
 43 47  1  0
 43 42  2  0
 44 42  1  0
 44 50  1  0
 45 43  1  0
 46 44  2  0
 48 45  1  0
 49 45  2  0
 49 46  1  0
 51 56  1  0
 51 46  1  0
 52 51  1  0
 53 54  1  0
 53 52  1  0
 54 55  1  0
 55 56  1  0
 57 54  1  0
 58 57  1  0
 59 58  2  0
 60 61  2  0
 60 59  1  0
 61 62  1  0
 62 63  1  0
 62 57  2  0
 63 64  1  0
 65 63  1  0
 66 59  1  0
 66 71  1  0
 67 66  2  0
 68 67  1  0
 68 69  2  0
 69 70  1  0
 70 71  2  0
 72 73  1  0
 72 67  1  0
M  ISO  4  40 101  41 101  46 100  51 100
M  END
>  <TORSDO>  (186) 
F 16

>  <SCORE>  (186) 
-14.651

>  <name>  (186) 
185

>  <ligand_id>  (186) 
185

>  <original_smiles>  (186) 
[H]Oc1c([H])c([H])c([H])c([H])c1-c1nnc(N([H])[H])c(N2C([H])([H])C([H])([H])N(c3nc(C([H])([H])[H])c(C([H])([H])[H])c(C([H])([H])Oc4c([H])c(-c5sc([H])nc5C([H])([H])[H])c([H])c([H])c4C([H])([H])N([H])C(=O)C4([H])N(C(=O)C([H])(N([H])C(=O)C5(F)C([H])([H])C5([H])[H])C(C([H])([H])[H])(C([H])([H])[H])C([H])([H])[H])C([H])([H])C([H])(O[H])C4([H])[H])c3Cl)C([H])([H])C2([H])[H])c1[H]

>  <smiles>  (186) 
[H]Oc1c([H])c([H])c([H])c([H])c1-c1nnc(N([H])[H])c(N2C([H])([H])C([H])([H])N(c3nc(C([H])([H])[H])c(C([H])([H])[H])c(C([H])([H])Oc4c([H])c(-c5sc([H])nc5C([H])([H])[H])c([H])c([H])c4C([H])([H])N([H])C(=O)C4([H])N(C(=O)C([H])(N([H])C(=O)C5(F)C([H])([H])C5([H])[H])C(C([H])([H])[H])(C([H])([H])[H])C([H])([H])[H])C([H])([H])C([H])(O[H])C4([H])[H])c3Cl)C([H])([H])C2([H])[H])c1[H]

$$$$
186:0:0
     RDKit          3D

 79 87  0  0  1  0  0  0  0  0999 V2000
  -38.6200   14.1890  -23.8600 O   0  0  0  0  0  0  0  0  0  0  0  0
  -37.4970   17.7050  -26.6930 C   0  0  0  0  0  3  0  0  0  0  0  0
  -37.6180   17.1310  -25.4230 C   0  0  0  0  0  3  0  0  0  0  0  0
  -37.0860   19.8140  -25.5850 C   0  0  0  0  0  3  0  0  0  0  0  0
  -37.3560   19.0980  -26.7630 C   0  0  0  0  0  0  0  0  0  0  0  0
  -37.6290   17.9780  -24.2970 C   0  0  0  0  0  0  0  0  0  0  0  0
  -40.0430   16.1420  -23.5420 C   0  0  0  0  0  2  0  0  0  0  0  0
  -39.6400   17.5550  -23.1080 C   0  0  0  0  0  2  0  0  0  0  0  0
  -37.7870   16.2460  -22.6420 C   0  0  0  0  0  2  0  0  0  0  0  0
  -38.9410   15.2500  -22.9450 C   0  0  0  0  0  3  0  0  0  0  0  0
  -37.2800   19.2760  -24.3650 N   0  0  0  0  0  0  0  0  0  0  0  0
  -38.1820   17.5740  -23.0740 N   0  0  0  0  0  0  0  0  0  0  0  0
  -37.9030   19.8120  -27.9760 C   0  0  0  0  0  2  0  0  0  0  0  0
  -40.3640   19.5180  -28.4840 N   0  0  0  0  0  0  0  0  0  0  0  0
  -40.0960   19.2840  -29.9080 C   0  0  0  0  0  2  0  0  0  0  0  0
  -41.3570   19.4370  -30.7740 C   0  0  0  0  0  2  0  0  0  0  0  0
  -42.4120   18.5890  -30.2430 N   0  0  0  0  0  0  0  0  0  0  0  0
  -42.7780   18.7170  -28.8370 C   0  0  0  0  0  2  0  0  0  0  0  0
  -41.7760   19.5780  -28.0290 C   0  0  0  0  0  2  0  0  0  0  0  0
  -39.3790   20.0290  -27.6990 C   0  0  0  0  0  3  0  0  0  0  0  0
  -39.6970   20.7480  -26.5960 N   0  0  0  0  0  0  0  0  0  0  0  0
  -38.9770   21.1870  -26.0430 H   0  0  0  0  0  0  0  0  0  0  0  0
  -40.6490   20.9520  -26.3370 H   0  0  0  0  0  0  0  0  0  0  0  0
  -43.3020   17.9760  -31.1500 C   0  0  0  0  0  0  0  0  0  0  0  0
  -44.6230   18.4270  -31.3300 C   0  0  0  0  0  3  0  0  0  0  0  0
  -45.4560   17.7600  -32.2680 C   0  0  0  0  0  0  0  0  0  0  0  0
  -44.9670   16.6920  -32.9590 N   0  0  0  0  0  0  0  0  0  0  0  0
  -43.7240   16.2350  -32.7820 N   0  0  0  0  0  0  0  0  0  0  0  0
  -42.9030   16.8540  -31.9110 C   0  0  0  0  0  0  0  0  0  0  0  0
  -41.6420   16.3090  -31.7540 N   0  0  0  0  0  0  0  0  0  0  0  0
  -41.1990   16.6270  -30.9030 H   0  0  0  0  0  0  0  0  0  0  0  0
  -41.5710   15.3130  -31.9020 H   0  0  0  0  0  0  0  0  0  0  0  0
  -46.8820   18.1490  -32.5430 C   0  0  0  0  0  0  0  0  0  0  0  0
  -47.7770   17.4100  -33.3830 C   0  0  0  0  0  0  0  0  0  0  0  0
  -49.1090   17.8250  -33.5790 C   0  0  0  0  0  3  0  0  0  0  0  0
  -49.5990   18.9810  -32.9560 C   0  0  0  0  0  3  0  0  0  0  0  0
  -48.7450   19.7330  -32.1370 C   0  0  0  0  0  3  0  0  0  0  0  0
  -47.4160   19.3210  -31.9380 C   0  0  0  0  0  3  0  0  0  0  0  0
  -47.4100   16.2680  -34.0400 O   0  0  0  0  0  0  0  0  0  0  0  0
  -46.4930   16.0600  -33.8590 H   0  0  0  0  0  0  0  0  0  0  0  0
  -37.4150   13.5270  -23.7230 C   0  0  0  0  0  0  0  0  0  0  0  0
  -36.7280   13.4220  -22.4870 C   0  0  0  0  0  3  0  0  0  0  0  0
  -35.4420   12.8480  -22.4020 C   0  0  0  0  0  0  0  0  0  0  0  0
  -35.5380   12.3920  -24.8000 C   0  0  0  0  0  3  0  0  0  0  0  0
  -36.8270   12.9640  -24.8820 C   0  0  0  0  0  0  0  0  0  0  0  0
  -34.8480   12.3500  -23.5740 C   0  0  0  0  0  3  0  0  0  0  0  0
  -35.2060   12.2760  -19.9020 C   0  0  0  0  0  0  0  0  0  0  0  0
  -33.0540   12.7110  -19.3500 C   0  0  0  0  0  3  0  0  0  0  0  0
  -34.7470   12.7340  -21.1200 C   0  0  0  0  0  0  0  0  0  0  0  0
  -34.2300   12.2630  -18.9060 N   0  0  0  0  0  0  0  0  0  0  0  0
  -33.0630   13.1990  -21.0340 S   0  0  0  0  0  0  0  0  0  0  0  0
  -36.5730   11.7770  -19.5580 C   0  0  0  0  0  1  0  0  0  0  0  0
  -37.5950   12.9640  -26.2050 C   0  0  0  0  0  2  0  0  0  0  0  0
  -36.2060   13.7140  -28.1170 C   0  0  0  0  0  0  0  0  0  0  0  0
  -36.4610   14.9100  -27.9610 O   0  0  0  0  0  0  0  0  0  0  0  0
  -36.7530   12.7470  -27.3750 N   0  0  0  0  0  0  0  0  0  0  0  0
  -36.4920   11.7920  -27.5770 H   0  0  0  0  0  0  0  0  0  0  0  0
  -36.1300   14.4390  -31.1430 C   0  0  0  0  0  0  0  0  0  0  0  0
  -35.1640   13.2640  -29.1570 C   0  0  0  0  0  3  0  0  0  0  0  0
  -33.6780   14.4820  -30.6220 C   0  0  0  0  0  2  0  0  0  0  0  0
  -35.0750   14.1310  -30.3470 N   0  0  0  0  0  0  0  0  0  0  0  0
  -37.2580   13.9750  -30.9370 O   0  0  0  0  0  0  0  0  0  0  0  0
  -33.7660   13.2990  -28.5170 C   0  0  0  0  0  2  0  0  0  0  0  0
  -32.8320   13.6540  -29.6560 C   0  0  0  0  0  3  0  0  0  0  0  0
  -32.3920   12.4810  -30.3260 O   0  0  0  0  0  0  0  0  0  0  0  0
  -33.1550   12.0090  -30.6420 H   0  0  0  0  0  0  0  0  0  0  0  0
  -35.9370   15.3640  -32.3740 C   0  0  0  0  0  3  0  0  0  0  0  0
  -35.7030   17.4550  -30.8660 C   0  0  0  0  0  1  0  0  0  0  0  0
  -35.9370   17.7100  -33.3280 C   0  0  0  0  0  1  0  0  0  0  0  0
  -37.9110   16.9990  -31.9550 C   0  0  0  0  0  1  0  0  0  0  0  0
  -36.3810   16.8530  -32.1230 C   0  0  1  0  0  0  0  0  0  0  0  0
  -36.6990   14.7740  -33.4900 N   0  0  0  0  0  0  0  0  0  0  0  0
  -36.1910   14.2200  -34.5990 C   0  0  0  0  0  0  0  0  0  0  0  0
  -34.9810   14.2240  -34.8390 O   0  0  0  0  0  0  0  0  0  0  0  0
  -37.6980   14.6770  -33.3580 H   0  0  0  0  0  0  0  0  0  0  0  0
  -37.1920   13.5920  -35.5330 C   0  0  1  0  0  0  0  0  0  0  0  0
  -38.4640   13.4770  -34.9940 F   0  0  0  0  0  0  0  0  0  0  0  0
  -37.1000   13.8610  -37.0160 C   0  0  0  0  0  2  0  0  0  0  0  0
  -36.7530   12.4930  -36.4760 C   0  0  0  0  0  2  0  0  0  0  0  0
  1 41  1  0
  2  3  1  0
  3  6  2  0
  4 11  2  0
  5  2  2  0
  5  4  1  0
  6 12  1  0
  7  8  1  0
  7 10  1  0
  8 12  1  0
 10  1  1  0
 10  9  1  0
 11  6  1  0
 12  9  1  0
 13  5  1  0
 14 19  1  0
 14 20  1  0
 15 14  1  0
 16 17  1  0
 16 15  1  0
 17 18  1  0
 18 19  1  0
 20 13  1  0
 20 21  1  0
 21 23  1  0
 21 22  1  0
 24 17  1  0
 25 24  1  0
 26 25  2  0
 27 28  2  0
 27 26  1  0
 28 29  1  0
 29 30  1  0
 29 24  2  0
 30 31  1  0
 32 30  1  0
 33 26  1  0
 33 38  1  0
 34 33  2  0
 35 34  1  0
 35 36  2  0
 36 37  1  0
 37 38  2  0
 39 40  1  0
 39 34  1  0
 41 42  1  0
 42 43  2  0
 43 49  1  0
 44 46  2  0
 45 44  1  0
 45 41  2  0
 46 43  1  0
 47 52  1  0
 47 50  1  0
 48 50  2  0
 49 51  1  0
 49 47  2  0
 51 48  1  0
 53 45  1  0
 54 55  2  0
 54 56  1  0
 56 53  1  0
 57 56  1  0
 58 62  2  0
 58 61  1  0
 59 63  1  0
 59 54  1  0
 60 61  1  0
 60 64  1  0
 61 59  1  0
 64 65  1  0
 64 63  1  0
 66 65  1  0
 67 71  1  0
 67 58  1  0
 71 69  1  6
 71 70  1  0
 71 68  1  0
 72 75  1  0
 72 67  1  0
 73 72  1  0
 74 73  2  0
 76 77  1  1
 76 73  1  0
 78 79  1  0
 78 76  1  0
 79 76  1  0
M  ISO  4   1 101  10 101  14 100  20 100
M  END
>  <TORSDO>  (187) 
F 16

>  <SCORE>  (187) 
-14.609

>  <name>  (187) 
186

>  <ligand_id>  (187) 
186

>  <original_smiles>  (187) 
[H]Oc1c([H])c([H])c([H])c([H])c1-c1nnc(N([H])[H])c(N2C([H])([H])C([H])([H])N(C(=[N+]([H])[H])C([H])([H])c3c([H])nc(N4C([H])([H])C([H])([H])C([H])(Oc5c([H])c(-c6sc([H])nc6C([H])([H])[H])c([H])c([H])c5C([H])([H])N([H])C(=O)C5([H])N(C(=O)C([H])(N([H])C(=O)C6(F)C([H])([H])C6([H])[H])C(C([H])([H])[H])(C([H])([H])[H])C([H])([H])[H])C([H])([H])C([H])(O[H])C5([H])[H])C4([H])[H])c([H])c3[H])C([H])([H])C2([H])[H])c1[H]

>  <smiles>  (187) 
[H]Oc1c([H])c([H])c([H])c([H])c1-c1nnc(N([H])[H])c(N2C([H])([H])C([H])([H])N(C(=[N+]([H])[H])C([H])([H])c3c([H])nc(N4C([H])([H])C([H])([H])C([H])(Oc5c([H])c(-c6sc([H])nc6C([H])([H])[H])c([H])c([H])c5C([H])([H])N([H])C(=O)C5([H])N(C(=O)C([H])(N([H])C(=O)C6(F)C([H])([H])C6([H])[H])C(C([H])([H])[H])(C([H])([H])[H])C([H])([H])[H])C([H])([H])C([H])(O[H])C5([H])[H])C4([H])[H])c([H])c3[H])C([H])([H])C2([H])[H])c1[H]

$$$$
187:0:0
     RDKit          3D

 73 80  0  0  1  0  0  0  0  0999 V2000
  -37.3700   13.4680  -23.7120 C   0  0  0  0  0  0  0  0  0  0  0  0
  -36.6850   13.3880  -22.4810 C   0  0  0  0  0  3  0  0  0  0  0  0
  -35.4110   12.7920  -22.4000 C   0  0  0  0  0  0  0  0  0  0  0  0
  -35.5140   12.3410  -24.8040 C   0  0  0  0  0  3  0  0  0  0  0  0
  -36.7990   12.9210  -24.8820 C   0  0  0  0  0  0  0  0  0  0  0  0
  -34.8260   12.2890  -23.5800 C   0  0  0  0  0  3  0  0  0  0  0  0
  -35.1910   12.1970  -19.9040 C   0  0  0  0  0  0  0  0  0  0  0  0
  -33.0310   12.5810  -19.3480 C   0  0  0  0  0  3  0  0  0  0  0  0
  -34.7200   12.6550  -21.1180 C   0  0  0  0  0  0  0  0  0  0  0  0
  -34.2150   12.1570  -18.9050 N   0  0  0  0  0  0  0  0  0  0  0  0
  -33.0250   13.0820  -21.0270 S   0  0  0  0  0  0  0  0  0  0  0  0
  -36.5700   11.7260  -19.5580 C   0  0  0  0  0  1  0  0  0  0  0  0
  -37.5790   12.9340  -26.1950 C   0  0  0  0  0  2  0  0  0  0  0  0
  -36.2060   13.7030  -28.1120 C   0  0  0  0  0  0  0  0  0  0  0  0
  -36.4650   14.8960  -27.9500 O   0  0  0  0  0  0  0  0  0  0  0  0
  -36.7460   12.7310  -27.3730 N   0  0  0  0  0  0  0  0  0  0  0  0
  -36.4850   11.7770  -27.5870 H   0  0  0  0  0  0  0  0  0  0  0  0
  -36.1480   14.4560  -31.1280 C   0  0  0  0  0  0  0  0  0  0  0  0
  -35.1690   13.2620  -29.1580 C   0  0  0  0  0  3  0  0  0  0  0  0
  -33.6880   14.4850  -30.6230 C   0  0  0  0  0  2  0  0  0  0  0  0
  -35.0870   14.1380  -30.3410 N   0  0  0  0  0  0  0  0  0  0  0  0
  -37.2750   13.9910  -30.9160 O   0  0  0  0  0  0  0  0  0  0  0  0
  -33.7680   13.2920  -28.5250 C   0  0  0  0  0  2  0  0  0  0  0  0
  -32.8390   13.6490  -29.6660 C   0  0  0  0  0  3  0  0  0  0  0  0
  -32.4170   12.4770  -30.3460 O   0  0  0  0  0  0  0  0  0  0  0  0
  -33.1880   12.0170  -30.6640 H   0  0  0  0  0  0  0  0  0  0  0  0
  -35.9600   15.3830  -32.3580 C   0  0  0  0  0  3  0  0  0  0  0  0
  -35.7690   17.4750  -30.8530 C   0  0  0  0  0  1  0  0  0  0  0  0
  -35.9930   17.7350  -33.3110 C   0  0  0  0  0  1  0  0  0  0  0  0
  -37.9600   16.9940  -31.9510 C   0  0  0  0  0  1  0  0  0  0  0  0
  -36.4290   16.8650  -32.1120 C   0  0  1  0  0  0  0  0  0  0  0  0
  -36.7070   14.7820  -33.4760 N   0  0  0  0  0  0  0  0  0  0  0  0
  -36.1870   14.2420  -34.5880 C   0  0  0  0  0  0  0  0  0  0  0  0
  -34.9780   14.2680  -34.8250 O   0  0  0  0  0  0  0  0  0  0  0  0
  -37.7030   14.6620  -33.3410 H   0  0  0  0  0  0  0  0  0  0  0  0
  -37.1760   13.6000  -35.5260 C   0  0  1  0  0  0  0  0  0  0  0  0
  -38.4440   13.4500  -34.9880 F   0  0  0  0  0  0  0  0  0  0  0  0
  -37.0890   13.8900  -37.0060 C   0  0  0  0  0  2  0  0  0  0  0  0
  -36.7130   12.5210  -36.4810 C   0  0  0  0  0  2  0  0  0  0  0  0
  -38.5760   14.1070  -23.7770 O   0  0  0  0  0  0  0  0  0  0  0  0
  -38.6280   16.2140  -22.5610 C   0  0  0  0  0  1  0  0  0  0  0  0
  -38.4320   15.5220  -23.9180 C   0  0  0  0  0  3  0  0  0  0  0  0
  -38.0340   18.4940  -27.1900 C   0  0  0  0  0  0  0  0  0  0  0  0
  -39.4810   15.9970  -24.9310 C   0  0  0  0  0  0  0  0  0  0  0  0
  -37.7870   17.4420  -26.1280 C   0  0  0  0  0  2  0  0  0  0  0  0
  -40.0960   17.4330  -26.8210 C   0  0  0  0  0  2  0  0  0  0  0  0
  -39.5120   18.8000  -27.1600 C   0  0  0  0  0  3  0  0  0  0  0  0
  -39.1130   16.8370  -25.9200 N   0  0  0  0  0  0  0  0  0  0  0  0
  -37.1640   18.9850  -27.9140 O   0  0  0  0  0  0  0  0  0  0  0  0
  -40.6430   15.5940  -24.8140 O   0  0  0  0  0  0  0  0  0  0  0  0
  -40.1920   19.4830  -28.2730 N   0  0  0  0  0  0  0  0  0  0  0  0
  -39.8580   19.2630  -29.6890 C   0  0  0  0  0  2  0  0  0  0  0  0
  -41.0860   19.4600  -30.6210 C   0  0  0  0  0  2  0  0  0  0  0  0
  -42.2230   18.6970  -30.1030 N   0  0  0  0  0  0  0  0  0  0  0  0
  -42.5640   18.8270  -28.6900 C   0  0  0  0  0  2  0  0  0  0  0  0
  -41.5920   19.7870  -27.9690 C   0  0  0  0  0  2  0  0  0  0  0  0
  -43.1200   18.0610  -30.9830 C   0  0  0  0  0  0  0  0  0  0  0  0
  -44.4200   18.5590  -31.1980 C   0  0  0  0  0  3  0  0  0  0  0  0
  -45.2800   17.8730  -32.0970 C   0  0  0  0  0  0  0  0  0  0  0  0
  -44.8360   16.7460  -32.7230 N   0  0  0  0  0  0  0  0  0  0  0  0
  -43.6150   16.2480  -32.5130 N   0  0  0  0  0  0  0  0  0  0  0  0
  -42.7720   16.8770  -31.6690 C   0  0  0  0  0  0  0  0  0  0  0  0
  -41.5450   16.2730  -31.4640 N   0  0  0  0  0  0  0  0  0  0  0  0
  -41.1100   16.5850  -30.6050 H   0  0  0  0  0  0  0  0  0  0  0  0
  -41.5140   15.2740  -31.6120 H   0  0  0  0  0  0  0  0  0  0  0  0
  -46.6850   18.3150  -32.4020 C   0  0  0  0  0  0  0  0  0  0  0  0
  -47.5940   17.6010  -33.2500 C   0  0  0  0  0  0  0  0  0  0  0  0
  -48.9050   18.0690  -33.4760 C   0  0  0  0  0  3  0  0  0  0  0  0
  -49.3560   19.2540  -32.8760 C   0  0  0  0  0  3  0  0  0  0  0  0
  -48.4880   19.9790  -32.0520 C   0  0  0  0  0  3  0  0  0  0  0  0
  -47.1800   19.5140  -31.8240 C   0  0  0  0  0  3  0  0  0  0  0  0
  -47.2640   16.4380  -33.8860 O   0  0  0  0  0  0  0  0  0  0  0  0
  -46.3550   16.2010  -33.6990 H   0  0  0  0  0  0  0  0  0  0  0  0
  1  2  1  0
  2  3  2  0
  3  9  1  0
  4  6  2  0
  5  4  1  0
  5  1  2  0
  6  3  1  0
  7 12  1  0
  7 10  1  0
  8 10  2  0
  9 11  1  0
  9  7  2  0
 11  8  1  0
 13  5  1  0
 14 15  2  0
 14 16  1  0
 16 13  1  0
 17 16  1  0
 18 22  2  0
 18 21  1  0
 19 23  1  0
 19 14  1  0
 20 21  1  0
 20 24  1  0
 21 19  1  0
 24 25  1  0
 24 23  1  0
 26 25  1  0
 27 31  1  0
 27 18  1  0
 31 29  1  6
 31 30  1  0
 31 28  1  0
 32 35  1  0
 32 27  1  0
 33 32  1  0
 34 33  2  0
 36 37  1  1
 36 33  1  0
 38 39  1  0
 38 36  1  0
 39 36  1  0
 40  1  1  0
 42 40  1  0
 42 41  1  0
 43 47  1  0
 43 45  1  0
 44 50  2  0
 44 42  1  0
 45 48  1  0
 46 48  1  0
 47 46  1  0
 48 44  1  0
 49 43  2  0
 51 52  1  0
 51 56  1  0
 51 47  1  0
 53 54  1  0
 53 52  1  0
 54 55  1  0
 55 56  1  0
 57 54  1  0
 58 57  1  0
 59 58  2  0
 60 61  2  0
 60 59  1  0
 61 62  1  0
 62 63  1  0
 62 57  2  0
 63 64  1  0
 65 63  1  0
 66 59  1  0
 66 71  1  0
 67 66  2  0
 68 67  1  0
 68 69  2  0
 69 70  1  0
 70 71  2  0
 72 73  1  0
 72 67  1  0
M  ISO  4  40 101  42 101  47 100  51 100
M  END
>  <TORSDO>  (188) 
F 16

>  <SCORE>  (188) 
-14.420

>  <name>  (188) 
187

>  <ligand_id>  (188) 
187

>  <original_smiles>  (188) 
[H]Oc1c([H])c([H])c([H])c([H])c1-c1nnc(N([H])[H])c(N2C([H])([H])C([H])([H])N(C3([H])C(=O)C([H])([H])N(C(=O)C([H])(Oc4c([H])c(-c5sc([H])nc5C([H])([H])[H])c([H])c([H])c4C([H])([H])N([H])C(=O)C4([H])N(C(=O)C([H])(N([H])C(=O)C5(F)C([H])([H])C5([H])[H])C(C([H])([H])[H])(C([H])([H])[H])C([H])([H])[H])C([H])([H])C([H])(O[H])C4([H])[H])C([H])([H])[H])C3([H])[H])C([H])([H])C2([H])[H])c1[H]

>  <smiles>  (188) 
[H]Oc1c([H])c([H])c([H])c([H])c1-c1nnc(N([H])[H])c(N2C([H])([H])C([H])([H])N(C3([H])C(=O)C([H])([H])N(C(=O)C([H])(Oc4c([H])c(-c5sc([H])nc5C([H])([H])[H])c([H])c([H])c4C([H])([H])N([H])C(=O)C4([H])N(C(=O)C([H])(N([H])C(=O)C5(F)C([H])([H])C5([H])[H])C(C([H])([H])[H])(C([H])([H])[H])C([H])([H])[H])C([H])([H])C([H])(O[H])C4([H])[H])C([H])([H])[H])C3([H])[H])C([H])([H])C2([H])[H])c1[H]

$$$$
188:0:0
     RDKit          3D

 81 89  0  0  1  0  0  0  0  0999 V2000
  -39.4960   13.6890  -22.5920 C   0  0  0  0  0  2  0  0  0  0  0  0
  -41.6590   14.9150  -22.9590 C   0  0  0  0  0  3  0  0  0  0  0  0
  -42.0810   13.1580  -25.1190 C   0  0  0  0  0  3  0  0  0  0  0  0
  -40.9220   13.7210  -23.0790 C   0  0  0  0  0  0  0  0  0  0  0  0
  -42.3300   14.5340  -25.2410 C   0  0  0  0  0  0  0  0  0  0  0  0
  -41.3330   12.7390  -24.0120 C   0  0  0  0  0  0  0  0  0  0  0  0
  -42.4630   15.2870  -24.0480 C   0  0  0  0  0  0  0  0  0  0  0  0
  -43.1350   16.4620  -24.0240 F   0  0  0  0  0  0  0  0  0  0  0  0
  -41.2930   16.3140  -26.5770 C   0  0  0  0  0  0  0  0  0  0  0  0
  -40.6020   15.0910  -28.4410 C   0  0  0  0  0  2  0  0  0  0  0  0
  -41.7680   14.3900  -27.7310 C   0  0  0  0  0  2  0  0  0  0  0  0
  -40.8790   16.5200  -28.0190 C   0  0  0  0  0  3  0  0  0  0  0  0
  -41.9970   15.1590  -26.4850 N   0  0  0  0  0  0  0  0  0  0  0  0
  -40.9710   17.0840  -25.6660 O   0  0  0  0  0  0  0  0  0  0  0  0
  -40.1790   18.8660  -28.4290 N   0  0  0  0  0  0  0  0  0  0  0  0
  -39.8340   19.4700  -29.7230 C   0  0  0  0  0  2  0  0  0  0  0  0
  -41.0440   19.4190  -30.7080 C   0  0  0  0  0  2  0  0  0  0  0  0
  -42.1600   18.6280  -30.1760 N   0  0  0  0  0  0  0  0  0  0  0  0
  -42.6360   19.0320  -28.8520 C   0  0  0  0  0  2  0  0  0  0  0  0
  -41.4490   19.4200  -27.9260 C   0  0  0  0  0  2  0  0  0  0  0  0
  -39.7780   17.5940  -28.1720 C   0  0  0  0  0  0  0  0  0  0  0  0
  -38.5990   17.2460  -28.2610 O   0  0  0  0  0  0  0  0  0  0  0  0
  -43.0600   18.0090  -31.0750 C   0  0  0  0  0  0  0  0  0  0  0  0
  -44.3660   18.4980  -31.2560 C   0  0  0  0  0  3  0  0  0  0  0  0
  -45.2300   17.8390  -32.1730 C   0  0  0  0  0  0  0  0  0  0  0  0
  -44.7770   16.7480  -32.8520 N   0  0  0  0  0  0  0  0  0  0  0  0
  -43.5470   16.2570  -32.6790 N   0  0  0  0  0  0  0  0  0  0  0  0
  -42.7080   16.8570  -31.8110 C   0  0  0  0  0  0  0  0  0  0  0  0
  -41.4760   16.2560  -31.6550 N   0  0  0  0  0  0  0  0  0  0  0  0
  -40.7970   16.8620  -31.2160 H   0  0  0  0  0  0  0  0  0  0  0  0
  -41.1300   15.7430  -32.4520 H   0  0  0  0  0  0  0  0  0  0  0  0
  -46.6360   18.2840  -32.4480 C   0  0  0  0  0  0  0  0  0  0  0  0
  -47.5490   17.6080  -33.3220 C   0  0  0  0  0  0  0  0  0  0  0  0
  -48.8630   18.0780  -33.5140 C   0  0  0  0  0  3  0  0  0  0  0  0
  -49.3190   19.2260  -32.8580 C   0  0  0  0  0  3  0  0  0  0  0  0
  -48.4490   19.9150  -32.0040 C   0  0  0  0  0  3  0  0  0  0  0  0
  -47.1340   19.4510  -31.8140 C   0  0  0  0  0  3  0  0  0  0  0  0
  -47.2180   16.4810  -34.0200 O   0  0  0  0  0  0  0  0  0  0  0  0
  -46.3000   16.2490  -33.8610 H   0  0  0  0  0  0  0  0  0  0  0  0
  -41.3150   10.7200  -22.8530 C   0  0  0  0  0  1  0  0  0  0  0  0
  -40.8690   11.4520  -23.9840 O   0  0  0  0  0  0  0  0  0  0  0  0
  -38.6630   14.0230  -23.7220 O   0  0  0  0  0  0  0  0  0  0  0  0
  -37.3810   13.5370  -23.6920 C   0  0  0  0  0  0  0  0  0  0  0  0
  -36.6630   13.4880  -22.4770 C   0  0  0  0  0  3  0  0  0  0  0  0
  -35.3820   12.9060  -22.4090 C   0  0  0  0  0  0  0  0  0  0  0  0
  -35.4990   12.4540  -24.8080 C   0  0  0  0  0  3  0  0  0  0  0  0
  -36.7890   13.0330  -24.8790 C   0  0  0  0  0  0  0  0  0  0  0  0
  -34.8040   12.4010  -23.5900 C   0  0  0  0  0  3  0  0  0  0  0  0
  -35.1560   12.3130  -19.9130 C   0  0  0  0  0  0  0  0  0  0  0  0
  -33.0020   12.7740  -19.3710 C   0  0  0  0  0  3  0  0  0  0  0  0
  -34.6930   12.7760  -21.1300 C   0  0  0  0  0  0  0  0  0  0  0  0
  -34.1740   12.3150  -18.9190 N   0  0  0  0  0  0  0  0  0  0  0  0
  -33.0130   13.2390  -21.0550 S   0  0  0  0  0  0  0  0  0  0  0  0
  -36.5250   11.8080  -19.5640 C   0  0  0  0  0  1  0  0  0  0  0  0
  -37.5620   13.0460  -26.1980 C   0  0  0  0  0  2  0  0  0  0  0  0
  -36.1770   13.7550  -28.1280 C   0  0  0  0  0  0  0  0  0  0  0  0
  -36.4130   14.9540  -27.9830 O   0  0  0  0  0  0  0  0  0  0  0  0
  -36.7290   12.8020  -27.3720 N   0  0  0  0  0  0  0  0  0  0  0  0
  -36.5000   11.8430  -27.5800 H   0  0  0  0  0  0  0  0  0  0  0  0
  -36.1140   14.4600  -31.1560 C   0  0  0  0  0  0  0  0  0  0  0  0
  -35.1480   13.2840  -29.1680 C   0  0  0  0  0  3  0  0  0  0  0  0
  -33.6510   14.4900  -30.6380 C   0  0  0  0  0  2  0  0  0  0  0  0
  -35.0540   14.1480  -30.3620 N   0  0  0  0  0  0  0  0  0  0  0  0
  -37.2400   13.9970  -30.9420 O   0  0  0  0  0  0  0  0  0  0  0  0
  -33.7510   13.3130  -28.5260 C   0  0  0  0  0  2  0  0  0  0  0  0
  -32.8130   13.6660  -29.6610 C   0  0  0  0  0  3  0  0  0  0  0  0
  -32.3840   12.4910  -30.3280 O   0  0  0  0  0  0  0  0  0  0  0  0
  -33.1530   12.0330  -30.6460 H   0  0  0  0  0  0  0  0  0  0  0  0
  -35.9250   15.3760  -32.3950 C   0  0  0  0  0  3  0  0  0  0  0  0
  -35.7410   17.4720  -30.9010 C   0  0  0  0  0  1  0  0  0  0  0  0
  -35.9140   17.7160  -33.3670 C   0  0  0  0  0  1  0  0  0  0  0  0
  -37.9210   17.0050  -32.0440 C   0  0  0  0  0  1  0  0  0  0  0  0
  -36.3870   16.8630  -32.1690 C   0  0  1  0  0  0  0  0  0  0  0  0
  -36.6780   14.7620  -33.5030 N   0  0  0  0  0  0  0  0  0  0  0  0
  -36.1690   14.2230  -34.6210 C   0  0  0  0  0  0  0  0  0  0  0  0
  -34.9600   14.2440  -34.8670 O   0  0  0  0  0  0  0  0  0  0  0  0
  -37.6700   14.6340  -33.3590 H   0  0  0  0  0  0  0  0  0  0  0  0
  -37.1670   13.5830  -35.5510 C   0  0  1  0  0  0  0  0  0  0  0  0
  -38.4340   13.4470  -35.0040 F   0  0  0  0  0  0  0  0  0  0  0  0
  -37.0890   13.8660  -37.0330 C   0  0  0  0  0  2  0  0  0  0  0  0
  -36.7250   12.4960  -36.5070 C   0  0  0  0  0  2  0  0  0  0  0  0
  3  6  1  0
  4  2  1  0
  4  1  1  0
  5  3  2  0
  5  7  1  0
  6 41  1  0
  6  4  2  0
  7  8  1  0
  7  2  2  0
  9 13  1  0
  9 14  2  0
 10 12  1  0
 10 11  1  0
 11 13  1  0
 12 21  1  0
 12  9  1  0
 13  5  1  0
 15 21  1  0
 15 20  1  0
 16 15  1  0
 17 18  1  0
 17 16  1  0
 18 19  1  0
 19 20  1  0
 22 21  2  0
 23 18  1  0
 24 23  1  0
 25 24  2  0
 26 27  2  0
 26 25  1  0
 27 28  1  0
 28 29  1  0
 28 23  2  0
 29 30  1  0
 31 29  1  0
 32 25  1  0
 32 37  1  0
 33 32  2  0
 34 33  1  0
 34 35  2  0
 35 36  1  0
 36 37  2  0
 38 39  1  0
 38 33  1  0
 41 40  1  0
 42 43  1  0
 42  1  1  0
 43 44  1  0
 44 45  2  0
 45 51  1  0
 46 48  2  0
 47 46  1  0
 47 43  2  0
 48 45  1  0
 49 54  1  0
 49 52  1  0
 50 52  2  0
 51 53  1  0
 51 49  2  0
 53 50  1  0
 55 47  1  0
 56 57  2  0
 56 58  1  0
 58 55  1  0
 59 58  1  0
 60 64  2  0
 60 63  1  0
 61 65  1  0
 61 56  1  0
 62 63  1  0
 62 66  1  0
 63 61  1  0
 66 67  1  0
 66 65  1  0
 68 67  1  0
 69 73  1  0
 69 60  1  0
 73 71  1  6
 73 72  1  0
 73 70  1  0
 74 77  1  0
 74 69  1  0
 75 74  1  0
 76 75  2  0
 78 79  1  1
 78 75  1  0
 80 81  1  0
 80 78  1  0
 81 78  1  0
M  ISO  4   1 101  15 100  21 100  42 101
M  END
>  <TORSDO>  (189) 
F 18

>  <SCORE>  (189) 
-14.514

>  <name>  (189) 
188

>  <ligand_id>  (189) 
188

>  <original_smiles>  (189) 
[H]Oc1c([H])c([H])c([H])c([H])c1-c1nnc(N([H])[H])c(N2C([H])([H])C([H])([H])N(C(=O)C3([H])C(=O)N(c4c([H])c(OC([H])([H])[H])c(C([H])([H])Oc5c([H])c(-c6sc([H])nc6C([H])([H])[H])c([H])c([H])c5C([H])([H])N([H])C(=O)C5([H])N(C(=O)C([H])(N([H])C(=O)C6(F)C([H])([H])C6([H])[H])C(C([H])([H])[H])(C([H])([H])[H])C([H])([H])[H])C([H])([H])C([H])(O[H])C5([H])[H])c([H])c4F)C([H])([H])C3([H])[H])C([H])([H])C2([H])[H])c1[H]

>  <smiles>  (189) 
[H]Oc1c([H])c([H])c([H])c([H])c1-c1nnc(N([H])[H])c(N2C([H])([H])C([H])([H])N(C(=O)C3([H])C(=O)N(c4c([H])c(OC([H])([H])[H])c(C([H])([H])Oc5c([H])c(-c6sc([H])nc6C([H])([H])[H])c([H])c([H])c5C([H])([H])N([H])C(=O)C5([H])N(C(=O)C([H])(N([H])C(=O)C6(F)C([H])([H])C6([H])[H])C(C([H])([H])[H])(C([H])([H])[H])C([H])([H])[H])C([H])([H])C([H])(O[H])C5([H])[H])c([H])c4F)C([H])([H])C3([H])[H])C([H])([H])C2([H])[H])c1[H]

$$$$
189:0:0
     RDKit          3D

 71 78  0  0  1  0  0  0  0  0999 V2000
  -37.4050   13.7900  -23.8800 C   0  0  0  0  0  0  0  0  0  0  0  0
  -36.7520   13.6340  -22.5980 C   0  0  0  0  0  3  0  0  0  0  0  0
  -35.5330   12.9010  -22.4020 C   0  0  0  0  0  0  0  0  0  0  0  0
  -35.6330   12.3220  -24.7680 C   0  0  0  0  0  3  0  0  0  0  0  0
  -36.8650   13.0220  -24.9390 C   0  0  0  0  0  0  0  0  0  0  0  0
  -34.9620   12.2900  -23.5350 C   0  0  0  0  0  3  0  0  0  0  0  0
  -35.2490   12.2750  -19.8780 C   0  0  0  0  0  0  0  0  0  0  0  0
  -33.0770   12.6430  -19.3610 C   0  0  0  0  0  3  0  0  0  0  0  0
  -34.8250   12.7500  -21.1050 C   0  0  0  0  0  0  0  0  0  0  0  0
  -34.2560   12.2330  -18.8970 N   0  0  0  0  0  0  0  0  0  0  0  0
  -33.1080   13.1380  -21.0440 S   0  0  0  0  0  0  0  0  0  0  0  0
  -36.6000   11.7930  -19.4800 C   0  0  0  0  0  1  0  0  0  0  0  0
  -37.6300   12.8630  -26.2390 C   0  0  0  0  0  2  0  0  0  0  0  0
  -36.1990   13.6760  -28.0710 C   0  0  0  0  0  0  0  0  0  0  0  0
  -36.4530   14.8700  -27.8800 O   0  0  0  0  0  0  0  0  0  0  0  0
  -36.7600   12.6850  -27.3840 N   0  0  0  0  0  0  0  0  0  0  0  0
  -36.5050   11.7360  -27.6260 H   0  0  0  0  0  0  0  0  0  0  0  0
  -36.1470   14.4340  -31.0750 C   0  0  0  0  0  0  0  0  0  0  0  0
  -35.1530   13.2490  -29.1060 C   0  0  0  0  0  3  0  0  0  0  0  0
  -33.6880   14.4740  -30.5720 C   0  0  0  0  0  2  0  0  0  0  0  0
  -35.0840   14.1210  -30.2910 N   0  0  0  0  0  0  0  0  0  0  0  0
  -37.2740   13.9660  -30.8610 O   0  0  0  0  0  0  0  0  0  0  0  0
  -33.7550   13.2920  -28.4690 C   0  0  0  0  0  2  0  0  0  0  0  0
  -32.8340   13.6500  -29.6130 C   0  0  0  0  0  3  0  0  0  0  0  0
  -32.4120   12.4770  -30.2890 O   0  0  0  0  0  0  0  0  0  0  0  0
  -33.1800   12.0150  -30.6090 H   0  0  0  0  0  0  0  0  0  0  0  0
  -35.9650   15.3630  -32.3030 C   0  0  0  0  0  3  0  0  0  0  0  0
  -35.7130   17.4620  -30.8120 C   0  0  0  0  0  1  0  0  0  0  0  0
  -36.0100   17.7120  -33.2630 C   0  0  0  0  0  1  0  0  0  0  0  0
  -37.9370   16.9850  -31.8410 C   0  0  0  0  0  1  0  0  0  0  0  0
  -36.4130   16.8490  -32.0480 C   0  0  1  0  0  0  0  0  0  0  0  0
  -36.7290   14.7750  -33.4140 N   0  0  0  0  0  0  0  0  0  0  0  0
  -36.2250   14.2190  -34.5240 C   0  0  0  0  0  0  0  0  0  0  0  0
  -35.0160   14.2170  -34.7670 O   0  0  0  0  0  0  0  0  0  0  0  0
  -37.7260   14.6800  -33.2760 H   0  0  0  0  0  0  0  0  0  0  0  0
  -37.2280   13.5960  -35.4570 C   0  0  1  0  0  0  0  0  0  0  0  0
  -38.5020   13.4880  -34.9220 F   0  0  0  0  0  0  0  0  0  0  0  0
  -37.1270   13.8620  -36.9420 C   0  0  0  0  0  2  0  0  0  0  0  0
  -36.7940   12.4920  -36.3970 C   0  0  0  0  0  2  0  0  0  0  0  0
  -38.5200   14.6770  -23.9920 O   0  0  0  0  0  0  0  0  0  0  0  0
  -39.2370   15.4960  -25.0980 C   0  0  0  0  0  2  0  0  0  0  0  0
  -38.9920   16.6320  -26.3400 C   0  0  0  0  0  2  0  0  0  0  0  0
  -38.8870   19.2720  -25.8120 C   0  0  0  0  0  2  0  0  0  0  0  0
  -40.7170   18.4030  -25.2050 C   0  0  0  0  0  3  0  0  0  0  0  0
  -40.0750   19.7850  -24.9790 C   0  0  0  0  0  3  0  0  0  0  0  0
  -39.7560   18.1480  -26.4570 C   0  0  2  0  0  0  0  0  0  0  0  0
  -42.2360   18.0660  -25.2330 C   0  0  0  0  0  1  0  0  0  0  0  0
  -39.7630   20.0310  -23.6950 F   0  0  0  0  0  0  0  0  0  0  0  0
  -40.3680   18.6510  -27.8810 N   0  0  0  0  0  0  0  0  0  0  0  0
  -39.7950   18.9980  -29.2450 C   0  0  0  0  0  2  0  0  0  0  0  0
  -40.8950   19.2220  -30.4060 C   0  0  0  0  0  2  0  0  0  0  0  0
  -42.2130   18.6530  -30.0610 N   0  0  0  0  0  0  0  0  0  0  0  0
  -42.6390   18.8160  -28.6730 C   0  0  0  0  0  2  0  0  0  0  0  0
  -41.5400   19.5430  -27.8590 C   0  0  0  0  0  2  0  0  0  0  0  0
  -43.0830   18.0240  -30.9920 C   0  0  0  0  0  0  0  0  0  0  0  0
  -44.4060   18.4750  -31.2130 C   0  0  0  0  0  3  0  0  0  0  0  0
  -45.2420   17.7940  -32.1410 C   0  0  0  0  0  0  0  0  0  0  0  0
  -44.7630   16.7010  -32.7980 N   0  0  0  0  0  0  0  0  0  0  0  0
  -43.5320   16.2330  -32.5810 N   0  0  0  0  0  0  0  0  0  0  0  0
  -42.7130   16.8590  -31.7100 C   0  0  0  0  0  0  0  0  0  0  0  0
  -41.4910   16.2510  -31.5090 N   0  0  0  0  0  0  0  0  0  0  0  0
  -41.0570   16.5240  -30.6400 H   0  0  0  0  0  0  0  0  0  0  0  0
  -41.4660   15.2580  -31.6920 H   0  0  0  0  0  0  0  0  0  0  0  0
  -46.6560   18.2060  -32.4640 C   0  0  0  0  0  0  0  0  0  0  0  0
  -47.5430   17.4790  -33.3240 C   0  0  0  0  0  0  0  0  0  0  0  0
  -48.8650   17.9160  -33.5580 C   0  0  0  0  0  3  0  0  0  0  0  0
  -49.3490   19.0850  -32.9560 C   0  0  0  0  0  3  0  0  0  0  0  0
  -48.5030   19.8280  -32.1220 C   0  0  0  0  0  3  0  0  0  0  0  0
  -47.1850   19.3920  -31.8880 C   0  0  0  0  0  3  0  0  0  0  0  0
  -47.1900   16.3250  -33.9650 O   0  0  0  0  0  0  0  0  0  0  0  0
  -46.2770   16.0950  -33.7870 H   0  0  0  0  0  0  0  0  0  0  0  0
  1  2  1  0
  2  3  2  0
  3  9  1  0
  4  6  2  0
  5  4  1  0
  5  1  2  0
  6  3  1  0
  7 12  1  0
  7 10  1  0
  8 10  2  0
  9 11  1  0
  9  7  2  0
 11  8  1  0
 13  5  1  0
 14 15  2  0
 14 16  1  0
 16 13  1  0
 17 16  1  0
 18 22  2  0
 18 21  1  0
 19 23  1  0
 19 14  1  0
 20 21  1  0
 20 24  1  0
 21 19  1  0
 24 25  1  0
 24 23  1  0
 26 25  1  0
 27 31  1  0
 27 18  1  0
 31 29  1  6
 31 30  1  0
 31 28  1  0
 32 35  1  0
 32 27  1  0
 33 32  1  0
 34 33  2  0
 36 37  1  1
 36 33  1  0
 38 39  1  0
 38 36  1  0
 39 36  1  0
 40  1  1  0
 41 40  1  0
 42 41  1  0
 43 45  1  0
 44 47  1  0
 44 45  1  0
 45 48  1  0
 46 42  1  6
 46 43  1  0
 46 44  1  0
 49 50  1  0
 49 54  1  0
 49 46  1  0
 51 52  1  0
 51 50  1  0
 52 53  1  0
 53 54  1  0
 55 52  1  0
 56 55  1  0
 57 56  2  0
 58 59  2  0
 58 57  1  0
 59 60  1  0
 60 61  1  0
 60 55  2  0
 61 62  1  0
 63 61  1  0
 64 57  1  0
 64 69  1  0
 65 64  2  0
 66 65  1  0
 66 67  2  0
 67 68  1  0
 68 69  2  0
 70 71  1  0
 70 65  1  0
M  ISO  4  40 101  41 101  46 100  49 100
M  END
>  <TORSDO>  (190) 
F 17

>  <SCORE>  (190) 
-14.736

>  <name>  (190) 
189

>  <ligand_id>  (190) 
189

>  <original_smiles>  (190) 
[H]Oc1c([H])c([H])c([H])c([H])c1-c1nnc(N([H])[H])c(N2C([H])([H])C([H])([H])N(C3(C([H])([H])C([H])([H])Oc4c([H])c(-c5sc([H])nc5C([H])([H])[H])c([H])c([H])c4C([H])([H])N([H])C(=O)C4([H])N(C(=O)C([H])(N([H])C(=O)C5(F)C([H])([H])C5([H])[H])C(C([H])([H])[H])(C([H])([H])[H])C([H])([H])[H])C([H])([H])C([H])(O[H])C4([H])[H])C([H])([H])C([H])(F)C3([H])C([H])([H])[H])C([H])([H])C2([H])[H])c1[H]

>  <smiles>  (190) 
[H]Oc1c([H])c([H])c([H])c([H])c1-c1nnc(N([H])[H])c(N2C([H])([H])C([H])([H])N(C3(C([H])([H])C([H])([H])Oc4c([H])c(-c5sc([H])nc5C([H])([H])[H])c([H])c([H])c4C([H])([H])N([H])C(=O)C4([H])N(C(=O)C([H])(N([H])C(=O)C5(F)C([H])([H])C5([H])[H])C(C([H])([H])[H])(C([H])([H])[H])C([H])([H])[H])C([H])([H])C([H])(O[H])C4([H])[H])C([H])([H])C([H])(F)C3([H])C([H])([H])[H])C([H])([H])C2([H])[H])c1[H]

$$$$
190:0:0
     RDKit          3D

 70 77  0  0  1  0  0  0  0  0999 V2000
  -37.3920   13.6910  -23.8210 C   0  0  0  0  0  0  0  0  0  0  0  0
  -36.7390   13.5760  -22.5480 C   0  0  0  0  0  3  0  0  0  0  0  0
  -35.5090   12.8740  -22.3700 C   0  0  0  0  0  0  0  0  0  0  0  0
  -35.5920   12.2830  -24.7300 C   0  0  0  0  0  3  0  0  0  0  0  0
  -36.8410   12.9260  -24.8940 C   0  0  0  0  0  0  0  0  0  0  0  0
  -34.9240   12.2750  -23.5000 C   0  0  0  0  0  3  0  0  0  0  0  0
  -35.2710   12.2810  -19.8540 C   0  0  0  0  0  0  0  0  0  0  0  0
  -33.0940   12.6160  -19.3170 C   0  0  0  0  0  3  0  0  0  0  0  0
  -34.8140   12.7330  -21.0770 C   0  0  0  0  0  0  0  0  0  0  0  0
  -34.2850   12.2240  -18.8630 N   0  0  0  0  0  0  0  0  0  0  0  0
  -33.0980   13.1000  -21.0030 S   0  0  0  0  0  0  0  0  0  0  0  0
  -36.6530   11.8320  -19.4940 C   0  0  0  0  0  1  0  0  0  0  0  0
  -37.5760   12.6300  -26.2050 C   0  0  0  0  0  2  0  0  0  0  0  0
  -36.2080   13.6620  -28.0560 C   0  0  0  0  0  0  0  0  0  0  0  0
  -36.4860   14.8450  -27.8530 O   0  0  0  0  0  0  0  0  0  0  0  0
  -36.7230   12.6320  -27.3810 N   0  0  0  0  0  0  0  0  0  0  0  0
  -36.4320   11.7150  -27.6920 H   0  0  0  0  0  0  0  0  0  0  0  0
  -36.1470   14.4340  -31.0710 C   0  0  0  0  0  0  0  0  0  0  0  0
  -35.1540   13.2590  -29.0990 C   0  0  0  0  0  3  0  0  0  0  0  0
  -33.6880   14.4890  -30.5640 C   0  0  0  0  0  2  0  0  0  0  0  0
  -35.0840   14.1320  -30.2820 N   0  0  0  0  0  0  0  0  0  0  0  0
  -37.2700   13.9600  -30.8600 O   0  0  0  0  0  0  0  0  0  0  0  0
  -33.7590   13.3130  -28.4590 C   0  0  0  0  0  2  0  0  0  0  0  0
  -32.8320   13.6670  -29.6030 C   0  0  0  0  0  3  0  0  0  0  0  0
  -32.4000   12.4940  -30.2740 O   0  0  0  0  0  0  0  0  0  0  0  0
  -33.1660   12.0300  -30.5980 H   0  0  0  0  0  0  0  0  0  0  0  0
  -35.9660   15.3600  -32.3040 C   0  0  0  0  0  3  0  0  0  0  0  0
  -36.7220   14.7590  -33.4160 N   0  0  0  0  0  0  0  0  0  0  0  0
  -36.2100   14.2110  -34.5270 C   0  0  0  0  0  0  0  0  0  0  0  0
  -35.0000   14.2270  -34.7680 O   0  0  0  0  0  0  0  0  0  0  0  0
  -37.7180   14.6450  -33.2770 H   0  0  0  0  0  0  0  0  0  0  0  0
  -37.2060   13.5760  -35.4600 C   0  0  1  0  0  0  0  0  0  0  0  0
  -38.4760   13.4480  -34.9200 F   0  0  0  0  0  0  0  0  0  0  0  0
  -37.1160   13.8520  -36.9420 C   0  0  0  0  0  2  0  0  0  0  0  0
  -36.7580   12.4840  -36.4080 C   0  0  0  0  0  2  0  0  0  0  0  0
  -35.7460   17.4590  -30.8120 C   0  0  0  0  0  1  0  0  0  0  0  0
  -36.0150   17.7040  -33.2680 C   0  0  0  0  0  1  0  0  0  0  0  0
  -37.9570   16.9700  -31.8660 C   0  0  0  0  0  1  0  0  0  0  0  0
  -36.4290   16.8420  -32.0550 C   0  0  1  0  0  0  0  0  0  0  0  0
  -38.4980   14.5550  -23.9570 O   0  0  0  0  0  0  0  0  0  0  0  0
  -38.8270   15.1860  -25.2710 C   0  0  0  0  0  2  0  0  0  0  0  0
  -40.1730   18.9060  -28.1930 N   0  0  0  0  0  0  0  0  0  0  0  0
  -39.7730   19.3250  -29.5550 C   0  0  0  0  0  2  0  0  0  0  0  0
  -40.9890   19.3950  -30.5570 C   0  0  0  0  0  2  0  0  0  0  0  0
  -42.1560   18.6450  -30.0710 N   0  0  0  0  0  0  0  0  0  0  0  0
  -42.5980   18.8900  -28.6960 C   0  0  0  0  0  2  0  0  0  0  0  0
  -41.4680   19.4300  -27.7810 C   0  0  0  0  0  2  0  0  0  0  0  0
  -38.2640   19.1500  -26.6820 C   0  0  0  0  0  3  0  0  0  0  0  0
  -37.5450   18.6350  -25.5930 C   0  0  0  0  0  3  0  0  0  0  0  0
  -39.3220   18.3870  -27.1720 C   0  0  0  0  0  0  0  0  0  0  0  0
  -38.8050   16.7230  -25.5800 C   0  0  0  0  0  0  0  0  0  0  0  0
  -37.8110   17.4300  -25.0480 N   0  0  0  0  0  0  0  0  0  0  0  0
  -39.5860   17.1790  -26.5950 N   0  0  0  0  0  0  0  0  0  0  0  0
  -43.0640   18.0460  -30.9800 C   0  0  0  0  0  0  0  0  0  0  0  0
  -44.3680   18.5460  -31.1970 C   0  0  0  0  0  3  0  0  0  0  0  0
  -45.2410   17.8650  -32.0910 C   0  0  0  0  0  0  0  0  0  0  0  0
  -44.8060   16.7360  -32.7210 N   0  0  0  0  0  0  0  0  0  0  0  0
  -43.5850   16.2360  -32.5170 N   0  0  0  0  0  0  0  0  0  0  0  0
  -42.7320   16.8610  -31.6780 C   0  0  0  0  0  0  0  0  0  0  0  0
  -41.5110   16.2430  -31.4780 N   0  0  0  0  0  0  0  0  0  0  0  0
  -41.0530   16.5760  -30.6380 H   0  0  0  0  0  0  0  0  0  0  0  0
  -41.5010   15.2400  -31.5910 H   0  0  0  0  0  0  0  0  0  0  0  0
  -46.6500   18.3040  -32.3910 C   0  0  0  0  0  0  0  0  0  0  0  0
  -47.5730   17.5800  -33.2170 C   0  0  0  0  0  0  0  0  0  0  0  0
  -48.8830   18.0490  -33.4370 C   0  0  0  0  0  3  0  0  0  0  0  0
  -49.3270   19.2430  -32.8530 C   0  0  0  0  0  3  0  0  0  0  0  0
  -48.4470   19.9800  -32.0480 C   0  0  0  0  0  3  0  0  0  0  0  0
  -47.1370   19.5150  -31.8270 C   0  0  0  0  0  3  0  0  0  0  0  0
  -47.2560   16.4050  -33.8390 O   0  0  0  0  0  0  0  0  0  0  0  0
  -46.3460   16.1660  -33.6580 H   0  0  0  0  0  0  0  0  0  0  0  0
  1  2  1  0
  2  3  2  0
  3  9  1  0
  4  6  2  0
  5  4  1  0
  5  1  2  0
  6  3  1  0
  7 12  1  0
  7 10  1  0
  8 10  2  0
  9 11  1  0
  9  7  2  0
 11  8  1  0
 13  5  1  0
 14 15  2  0
 14 16  1  0
 16 13  1  0
 17 16  1  0
 18 22  2  0
 18 21  1  0
 19 23  1  0
 19 14  1  0
 20 21  1  0
 20 24  1  0
 21 19  1  0
 24 25  1  0
 24 23  1  0
 26 25  1  0
 27 39  1  0
 27 18  1  0
 28 31  1  0
 28 27  1  0
 29 28  1  0
 30 29  2  0
 32 33  1  1
 32 29  1  0
 34 35  1  0
 34 32  1  0
 35 32  1  0
 39 37  1  6
 39 38  1  0
 39 36  1  0
 40  1  1  0
 41 40  1  0
 42 47  1  0
 42 50  1  0
 43 42  1  0
 44 45  1  0
 44 43  1  0
 45 46  1  0
 46 47  1  0
 48 49  2  0
 49 52  1  0
 50 48  1  0
 50 53  2  0
 51 41  1  0
 51 52  2  0
 53 51  1  0
 54 45  1  0
 55 54  1  0
 56 55  2  0
 57 58  2  0
 57 56  1  0
 58 59  1  0
 59 60  1  0
 59 54  2  0
 60 61  1  0
 62 60  1  0
 63 56  1  0
 63 68  1  0
 64 63  2  0
 65 64  1  0
 65 66  2  0
 66 67  1  0
 67 68  2  0
 69 70  1  0
 69 64  1  0
M  ISO  4  40 101  41 101  42 100  50 100
M  END
>  <TORSDO>  (191) 
F 15

>  <SCORE>  (191) 
-14.495

>  <name>  (191) 
190

>  <ligand_id>  (191) 
190

>  <original_smiles>  (191) 
[H]Oc1c([H])c([H])c([H])c([H])c1-c1nnc(N([H])[H])c(N2C([H])([H])C([H])([H])N(c3nc(C([H])([H])Oc4c([H])c(-c5sc([H])nc5C([H])([H])[H])c([H])c([H])c4C([H])([H])N([H])C(=O)C4([H])N(C(=O)C([H])(N([H])C(=O)C5(F)C([H])([H])C5([H])[H])C(C([H])([H])[H])(C([H])([H])[H])C([H])([H])[H])C([H])([H])C([H])(O[H])C4([H])[H])nc([H])c3[H])C([H])([H])C2([H])[H])c1[H]

>  <smiles>  (191) 
[H]Oc1c([H])c([H])c([H])c([H])c1-c1nnc(N([H])[H])c(N2C([H])([H])C([H])([H])N(c3nc(C([H])([H])Oc4c([H])c(-c5sc([H])nc5C([H])([H])[H])c([H])c([H])c4C([H])([H])N([H])C(=O)C4([H])N(C(=O)C([H])(N([H])C(=O)C5(F)C([H])([H])C5([H])[H])C(C([H])([H])[H])(C([H])([H])[H])C([H])([H])[H])C([H])([H])C([H])(O[H])C4([H])[H])nc([H])c3[H])C([H])([H])C2([H])[H])c1[H]

$$$$
191:0:0
     RDKit          3D

 79 87  0  0  1  0  0  0  0  0999 V2000
  -38.6410   14.1780  -23.7830 O   0  0  0  0  0  0  0  0  0  0  0  0
  -39.5640   15.9120  -22.5080 C   0  0  0  0  0  3  0  0  0  0  0  0
  -38.6700   15.5120  -23.4330 C   0  0  0  0  0  0  0  0  0  0  0  0
  -37.7540   16.4810  -24.0530 C   0  0  0  0  0  0  0  0  0  0  0  0
  -39.6110   17.2550  -22.1000 N   0  0  0  0  0  0  0  0  0  0  0  0
  -38.8170   18.0940  -22.5850 N   0  0  0  0  0  0  0  0  0  0  0  0
  -37.8540   17.7460  -23.5700 N   0  0  0  0  0  0  0  0  0  0  0  0
  -36.9400   16.1970  -24.9320 O   0  0  0  0  0  0  0  0  0  0  0  0
  -37.0220   18.8480  -24.0610 C   0  0  0  0  0  2  0  0  0  0  0  0
  -37.5950   19.4490  -25.3470 C   0  0  0  0  0  0  0  0  0  0  0  0
  -37.4880   20.0210  -28.2890 C   0  0  0  0  0  2  0  0  0  0  0  0
  -36.3020   19.8750  -27.3400 C   0  0  0  0  0  2  0  0  0  0  0  0
  -37.9800   18.6730  -27.7400 C   0  0  0  0  0  3  0  0  0  0  0  0
  -37.1090   18.9330  -26.5620 N   0  0  0  0  0  0  0  0  0  0  0  0
  -38.4760   20.3120  -25.2950 O   0  0  0  0  0  0  0  0  0  0  0  0
  -40.3990   19.1100  -28.2720 N   0  0  0  0  0  0  0  0  0  0  0  0
  -40.1350   19.5390  -29.6610 C   0  0  0  0  0  2  0  0  0  0  0  0
  -41.4000   19.5420  -30.5570 C   0  0  0  0  0  2  0  0  0  0  0  0
  -42.3730   18.5510  -30.1050 N   0  0  0  0  0  0  0  0  0  0  0  0
  -42.7990   18.6010  -28.7100 C   0  0  0  0  0  2  0  0  0  0  0  0
  -41.7780   19.3360  -27.8200 C   0  0  0  0  0  2  0  0  0  0  0  0
  -39.5000   18.4730  -27.4850 C   0  0  0  0  0  0  0  0  0  0  0  0
  -39.8540   17.7730  -26.5300 O   0  0  0  0  0  0  0  0  0  0  0  0
  -43.2370   17.9690  -31.0580 C   0  0  0  0  0  0  0  0  0  0  0  0
  -44.5520   18.4270  -31.2760 C   0  0  0  0  0  3  0  0  0  0  0  0
  -45.3720   17.7560  -32.2230 C   0  0  0  0  0  0  0  0  0  0  0  0
  -44.8690   16.6930  -32.9130 N   0  0  0  0  0  0  0  0  0  0  0  0
  -43.6240   16.2470  -32.7230 N   0  0  0  0  0  0  0  0  0  0  0  0
  -42.8240   16.8550  -31.8240 C   0  0  0  0  0  0  0  0  0  0  0  0
  -41.5680   16.2980  -31.6440 N   0  0  0  0  0  0  0  0  0  0  0  0
  -41.1390   16.5710  -30.7710 H   0  0  0  0  0  0  0  0  0  0  0  0
  -41.4700   15.3180  -31.8700 H   0  0  0  0  0  0  0  0  0  0  0  0
  -46.7960   18.1340  -32.5170 C   0  0  0  0  0  0  0  0  0  0  0  0
  -47.6600   17.4210  -33.4140 C   0  0  0  0  0  0  0  0  0  0  0  0
  -48.9930   17.8280  -33.6240 C   0  0  0  0  0  3  0  0  0  0  0  0
  -49.5150   18.9450  -32.9580 C   0  0  0  0  0  3  0  0  0  0  0  0
  -48.6950   19.6680  -32.0800 C   0  0  0  0  0  3  0  0  0  0  0  0
  -47.3630   19.2660  -31.8710 C   0  0  0  0  0  3  0  0  0  0  0  0
  -47.2650   16.3150  -34.1170 O   0  0  0  0  0  0  0  0  0  0  0  0
  -46.3450   16.1130  -33.9450 H   0  0  0  0  0  0  0  0  0  0  0  0
  -37.4320   13.5280  -23.6910 C   0  0  0  0  0  0  0  0  0  0  0  0
  -36.7450   13.4640  -22.4570 C   0  0  0  0  0  3  0  0  0  0  0  0
  -35.4740   12.8550  -22.3610 C   0  0  0  0  0  0  0  0  0  0  0  0
  -35.5780   12.3640  -24.7560 C   0  0  0  0  0  3  0  0  0  0  0  0
  -36.8610   12.9500  -24.8460 C   0  0  0  0  0  0  0  0  0  0  0  0
  -34.8900   12.3280  -23.5310 C   0  0  0  0  0  3  0  0  0  0  0  0
  -35.2480   12.2650  -19.8630 C   0  0  0  0  0  0  0  0  0  0  0  0
  -33.0940   12.6920  -19.3080 C   0  0  0  0  0  3  0  0  0  0  0  0
  -34.7840   12.7310  -21.0770 C   0  0  0  0  0  0  0  0  0  0  0  0
  -34.2710   12.2480  -18.8640 N   0  0  0  0  0  0  0  0  0  0  0  0
  -33.0990   13.1850  -20.9880 S   0  0  0  0  0  0  0  0  0  0  0  0
  -36.6180   11.7680  -19.5200 C   0  0  0  0  0  1  0  0  0  0  0  0
  -37.6330   12.9620  -26.1640 C   0  0  0  0  0  2  0  0  0  0  0  0
  -36.2550   13.7220  -28.0810 C   0  0  0  0  0  0  0  0  0  0  0  0
  -36.5200   14.9170  -27.9340 O   0  0  0  0  0  0  0  0  0  0  0  0
  -36.7940   12.7520  -27.3380 N   0  0  0  0  0  0  0  0  0  0  0  0
  -36.5450   11.7960  -27.5560 H   0  0  0  0  0  0  0  0  0  0  0  0
  -36.1930   14.4470  -31.1040 C   0  0  0  0  0  0  0  0  0  0  0  0
  -35.2130   13.2730  -29.1200 C   0  0  0  0  0  3  0  0  0  0  0  0
  -33.7380   14.4860  -30.5980 C   0  0  0  0  0  2  0  0  0  0  0  0
  -35.1350   14.1390  -30.3110 N   0  0  0  0  0  0  0  0  0  0  0  0
  -37.3200   13.9840  -30.8950 O   0  0  0  0  0  0  0  0  0  0  0  0
  -33.8120   13.3130  -28.4850 C   0  0  0  0  0  2  0  0  0  0  0  0
  -32.8860   13.6650  -29.6310 C   0  0  0  0  0  3  0  0  0  0  0  0
  -32.4550   12.4900  -30.3010 O   0  0  0  0  0  0  0  0  0  0  0  0
  -33.2200   12.0270  -30.6210 H   0  0  0  0  0  0  0  0  0  0  0  0
  -35.9990   15.3720  -32.3360 C   0  0  0  0  0  3  0  0  0  0  0  0
  -35.7810   17.4530  -30.8230 C   0  0  0  0  0  1  0  0  0  0  0  0
  -36.0000   17.7280  -33.2820 C   0  0  0  0  0  1  0  0  0  0  0  0
  -37.9780   17.0040  -31.9240 C   0  0  0  0  0  1  0  0  0  0  0  0
  -36.4500   16.8580  -32.0860 C   0  0  1  0  0  0  0  0  0  0  0  0
  -36.7540   14.7820  -33.4570 N   0  0  0  0  0  0  0  0  0  0  0  0
  -36.2360   14.2310  -34.5650 C   0  0  0  0  0  0  0  0  0  0  0  0
  -35.0250   14.2500  -34.7990 O   0  0  0  0  0  0  0  0  0  0  0  0
  -37.7540   14.6890  -33.3360 H   0  0  0  0  0  0  0  0  0  0  0  0
  -37.2270   13.5880  -35.4990 C   0  0  1  0  0  0  0  0  0  0  0  0
  -38.4960   13.4460  -34.9600 F   0  0  0  0  0  0  0  0  0  0  0  0
  -37.1420   13.8630  -36.9830 C   0  0  0  0  0  2  0  0  0  0  0  0
  -36.7690   12.4990  -36.4460 C   0  0  0  0  0  2  0  0  0  0  0  0
  1 41  1  0
  1  3  1  0
  2  5  1  0
  3  2  2  0
  4  7  1  0
  4  3  1  0
  6  5  2  0
  7  6  1  0
  8  4  2  0
  9  7  1  0
 10 15  2  0
 10  9  1  0
 11 13  1  0
 11 12  1  0
 12 14  1  0
 13 22  1  0
 13 14  1  0
 14 10  1  0
 16 21  1  0
 16 22  1  0
 17 16  1  0
 18 19  1  0
 18 17  1  0
 19 20  1  0
 20 21  1  0
 22 23  2  0
 24 19  1  0
 25 24  1  0
 26 25  2  0
 27 28  2  0
 27 26  1  0
 28 29  1  0
 29 30  1  0
 29 24  2  0
 30 31  1  0
 32 30  1  0
 33 26  1  0
 33 38  1  0
 34 33  2  0
 35 34  1  0
 35 36  2  0
 36 37  1  0
 37 38  2  0
 39 40  1  0
 39 34  1  0
 41 42  1  0
 42 43  2  0
 43 49  1  0
 44 46  2  0
 45 44  1  0
 45 41  2  0
 46 43  1  0
 47 52  1  0
 47 50  1  0
 48 50  2  0
 49 51  1  0
 49 47  2  0
 51 48  1  0
 53 45  1  0
 54 55  2  0
 54 56  1  0
 56 53  1  0
 57 56  1  0
 58 62  2  0
 58 61  1  0
 59 63  1  0
 59 54  1  0
 60 61  1  0
 60 64  1  0
 61 59  1  0
 64 65  1  0
 64 63  1  0
 66 65  1  0
 67 71  1  0
 67 58  1  0
 71 69  1  6
 71 70  1  0
 71 68  1  0
 72 75  1  0
 72 67  1  0
 73 72  1  0
 74 73  2  0
 76 77  1  1
 76 73  1  0
 78 79  1  0
 78 76  1  0
 79 76  1  0
M  ISO  4   1 101   3 101  16 100  22 100
M  END
>  <TORSDO>  (192) 
F 17

>  <SCORE>  (192) 
-13.780

>  <name>  (192) 
191

>  <ligand_id>  (192) 
191

>  <original_smiles>  (192) 
[H]Oc1c([H])c([H])c([H])c([H])c1-c1nnc(N([H])[H])c(N2C([H])([H])C([H])([H])N(C(=O)C3([H])N(C(=O)C([H])([H])n4nnc([H])c(Oc5c([H])c(-c6sc([H])nc6C([H])([H])[H])c([H])c([H])c5C([H])([H])N([H])C(=O)C5([H])N(C(=O)C([H])(N([H])C(=O)C6(F)C([H])([H])C6([H])[H])C(C([H])([H])[H])(C([H])([H])[H])C([H])([H])[H])C([H])([H])C([H])(O[H])C5([H])[H])c4=O)C([H])([H])C3([H])[H])C([H])([H])C2([H])[H])c1[H]

>  <smiles>  (192) 
[H]Oc1c([H])c([H])c([H])c([H])c1-c1nnc(N([H])[H])c(N2C([H])([H])C([H])([H])N(C(=O)C3([H])N(C(=O)C([H])([H])n4nnc([H])c(Oc5c([H])c(-c6sc([H])nc6C([H])([H])[H])c([H])c([H])c5C([H])([H])N([H])C(=O)C5([H])N(C(=O)C([H])(N([H])C(=O)C6(F)C([H])([H])C6([H])[H])C(C([H])([H])[H])(C([H])([H])[H])C([H])([H])[H])C([H])([H])C([H])(O[H])C5([H])[H])c4=O)C([H])([H])C3([H])[H])C([H])([H])C2([H])[H])c1[H]

$$$$
192:0:0
     RDKit          3D

 72 79  0  0  1  0  0  0  0  0999 V2000
  -37.4000   13.4910  -23.7130 C   0  0  0  0  0  0  0  0  0  0  0  0
  -36.7160   13.4460  -22.4790 C   0  0  0  0  0  3  0  0  0  0  0  0
  -35.4430   12.8430  -22.3770 C   0  0  0  0  0  0  0  0  0  0  0  0
  -35.5300   12.3510  -24.7740 C   0  0  0  0  0  3  0  0  0  0  0  0
  -36.8160   12.9260  -24.8690 C   0  0  0  0  0  0  0  0  0  0  0  0
  -34.8510   12.3140  -23.5440 C   0  0  0  0  0  3  0  0  0  0  0  0
  -35.2260   12.2720  -19.8710 C   0  0  0  0  0  0  0  0  0  0  0  0
  -33.0640   12.6650  -19.3180 C   0  0  0  0  0  3  0  0  0  0  0  0
  -34.7550   12.7180  -21.0900 C   0  0  0  0  0  0  0  0  0  0  0  0
  -34.2500   12.2480  -18.8720 N   0  0  0  0  0  0  0  0  0  0  0  0
  -33.0580   13.1400  -21.0050 S   0  0  0  0  0  0  0  0  0  0  0  0
  -36.6040   11.8020  -19.5210 C   0  0  0  0  0  1  0  0  0  0  0  0
  -37.5900   12.9120  -26.1860 C   0  0  0  0  0  2  0  0  0  0  0  0
  -36.2030   13.6840  -28.0870 C   0  0  0  0  0  0  0  0  0  0  0  0
  -36.4630   14.8780  -27.9200 O   0  0  0  0  0  0  0  0  0  0  0  0
  -36.7500   12.7080  -27.3590 N   0  0  0  0  0  0  0  0  0  0  0  0
  -36.5020   11.7530  -27.5830 H   0  0  0  0  0  0  0  0  0  0  0  0
  -36.1360   14.4250  -31.1050 C   0  0  0  0  0  0  0  0  0  0  0  0
  -35.1560   13.2460  -29.1260 C   0  0  0  0  0  3  0  0  0  0  0  0
  -33.6810   14.4770  -30.5890 C   0  0  0  0  0  2  0  0  0  0  0  0
  -35.0760   14.1190  -30.3120 N   0  0  0  0  0  0  0  0  0  0  0  0
  -37.2600   13.9520  -30.8990 O   0  0  0  0  0  0  0  0  0  0  0  0
  -33.7580   13.2910  -28.4860 C   0  0  0  0  0  2  0  0  0  0  0  0
  -32.8280   13.6550  -29.6260 C   0  0  0  0  0  3  0  0  0  0  0  0
  -32.3900   12.4860  -30.2990 O   0  0  0  0  0  0  0  0  0  0  0  0
  -33.1540   12.0150  -30.6190 H   0  0  0  0  0  0  0  0  0  0  0  0
  -35.9500   15.3530  -32.3360 C   0  0  0  0  0  3  0  0  0  0  0  0
  -35.7180   17.4530  -30.8480 C   0  0  0  0  0  1  0  0  0  0  0  0
  -35.9970   17.6980  -33.3020 C   0  0  0  0  0  1  0  0  0  0  0  0
  -37.9350   16.9680  -31.8910 C   0  0  0  0  0  1  0  0  0  0  0  0
  -36.4090   16.8370  -32.0880 C   0  0  1  0  0  0  0  0  0  0  0  0
  -36.7070   14.7570  -33.4490 N   0  0  0  0  0  0  0  0  0  0  0  0
  -36.1980   14.2090  -34.5610 C   0  0  0  0  0  0  0  0  0  0  0  0
  -34.9880   14.2210  -34.8020 O   0  0  0  0  0  0  0  0  0  0  0  0
  -37.7040   14.6460  -33.3110 H   0  0  0  0  0  0  0  0  0  0  0  0
  -37.1960   13.5780  -35.4950 C   0  0  1  0  0  0  0  0  0  0  0  0
  -38.4680   13.4560  -34.9570 F   0  0  0  0  0  0  0  0  0  0  0  0
  -37.1040   13.8540  -36.9770 C   0  0  0  0  0  2  0  0  0  0  0  0
  -36.7530   12.4830  -36.4420 C   0  0  0  0  0  2  0  0  0  0  0  0
  -38.6660   14.0090  -23.7790 O   0  0  0  0  0  0  0  0  0  0  0  0
  -38.7590   15.4270  -23.8610 C   0  0  0  0  0  2  0  0  0  0  0  0
  -40.9440   16.2620  -27.3580 C   0  0  0  0  0  3  0  0  0  0  0  0
  -40.7620   15.0940  -25.3910 C   0  0  0  0  0  3  0  0  0  0  0  0
  -39.8100   17.0430  -27.0210 C   0  0  0  0  0  0  0  0  0  0  0  0
  -39.5860   15.8150  -25.0740 C   0  0  0  0  0  0  0  0  0  0  0  0
  -41.4430   15.3070  -26.5390 N   0  0  0  0  0  0  0  0  0  0  0  0
  -39.1150   16.8030  -25.8750 N   0  0  0  0  0  0  0  0  0  0  0  0
  -40.1190   18.9910  -28.4960 N   0  0  0  0  0  0  0  0  0  0  0  0
  -39.8930   19.5740  -29.8270 C   0  0  0  0  0  2  0  0  0  0  0  0
  -41.1450   19.4430  -30.7400 C   0  0  0  0  0  2  0  0  0  0  0  0
  -42.1760   18.5840  -30.1540 N   0  0  0  0  0  0  0  0  0  0  0  0
  -42.5950   18.8970  -28.7880 C   0  0  0  0  0  2  0  0  0  0  0  0
  -41.4110   19.4080  -27.9270 C   0  0  0  0  0  2  0  0  0  0  0  0
  -39.2700   18.0630  -27.9910 C   0  0  0  0  0  0  0  0  0  0  0  0
  -38.0850   17.9920  -28.3380 O   0  0  0  0  0  0  0  0  0  0  0  0
  -43.1130   18.0060  -31.0430 C   0  0  0  0  0  0  0  0  0  0  0  0
  -44.4140   18.5190  -31.2360 C   0  0  0  0  0  3  0  0  0  0  0  0
  -45.2930   17.8600  -32.1390 C   0  0  0  0  0  0  0  0  0  0  0  0
  -44.8640   16.7470  -32.7990 N   0  0  0  0  0  0  0  0  0  0  0  0
  -43.6420   16.2380  -32.6190 N   0  0  0  0  0  0  0  0  0  0  0  0
  -42.7850   16.8430  -31.7730 C   0  0  0  0  0  0  0  0  0  0  0  0
  -41.5540   16.2310  -31.6080 N   0  0  0  0  0  0  0  0  0  0  0  0
  -41.0620   16.5670  -30.7920 H   0  0  0  0  0  0  0  0  0  0  0  0
  -41.5260   15.2310  -31.7420 H   0  0  0  0  0  0  0  0  0  0  0  0
  -46.7030   18.3080  -32.4170 C   0  0  0  0  0  0  0  0  0  0  0  0
  -47.6290   17.6040  -33.2560 C   0  0  0  0  0  0  0  0  0  0  0  0
  -48.9430   18.0760  -33.4520 C   0  0  0  0  0  3  0  0  0  0  0  0
  -49.3830   19.2530  -32.8320 C   0  0  0  0  0  3  0  0  0  0  0  0
  -48.4980   19.9700  -32.0150 C   0  0  0  0  0  3  0  0  0  0  0  0
  -47.1850   19.5020  -31.8170 C   0  0  0  0  0  3  0  0  0  0  0  0
  -47.3150   16.4460  -33.9110 O   0  0  0  0  0  0  0  0  0  0  0  0
  -46.4040   16.2020  -33.7430 H   0  0  0  0  0  0  0  0  0  0  0  0
  1  2  1  0
  2  3  2  0
  3  9  1  0
  4  6  2  0
  5  4  1  0
  5  1  2  0
  6  3  1  0
  7 12  1  0
  7 10  1  0
  8 10  2  0
  9 11  1  0
  9  7  2  0
 11  8  1  0
 13  5  1  0
 14 15  2  0
 14 16  1  0
 16 13  1  0
 17 16  1  0
 18 22  2  0
 18 21  1  0
 19 23  1  0
 19 14  1  0
 20 21  1  0
 20 24  1  0
 21 19  1  0
 24 25  1  0
 24 23  1  0
 26 25  1  0
 27 31  1  0
 27 18  1  0
 31 29  1  6
 31 30  1  0
 31 28  1  0
 32 35  1  0
 32 27  1  0
 33 32  1  0
 34 33  2  0
 36 37  1  1
 36 33  1  0
 38 39  1  0
 38 36  1  0
 39 36  1  0
 40  1  1  0
 41 40  1  0
 42 44  2  0
 42 46  1  0
 43 45  1  0
 44 47  1  0
 45 41  1  0
 46 43  2  0
 47 45  2  0
 48 54  1  0
 48 53  1  0
 49 48  1  0
 50 51  1  0
 50 49  1  0
 51 52  1  0
 52 53  1  0
 54 44  1  0
 55 54  2  0
 56 51  1  0
 57 56  1  0
 58 57  2  0
 59 60  2  0
 59 58  1  0
 60 61  1  0
 61 62  1  0
 61 56  2  0
 62 63  1  0
 64 62  1  0
 65 58  1  0
 65 70  1  0
 66 65  2  0
 67 66  1  0
 67 68  2  0
 68 69  1  0
 69 70  2  0
 71 72  1  0
 71 66  1  0
M  ISO  4  40 101  41 101  48 100  54 100
M  END
>  <TORSDO>  (193) 
F 16

>  <SCORE>  (193) 
-14.390

>  <name>  (193) 
192

>  <ligand_id>  (193) 
192

>  <original_smiles>  (193) 
[H]Oc1c([H])c([H])c([H])c([H])c1-c1nnc(N([H])[H])c(N2C([H])([H])C([H])([H])N(C(=O)c3nc(C([H])([H])Oc4c([H])c(-c5sc([H])nc5C([H])([H])[H])c([H])c([H])c4C([H])([H])N([H])C(=O)C4([H])N(C(=O)C([H])(N([H])C(=O)C5(F)C([H])([H])C5([H])[H])C(C([H])([H])[H])(C([H])([H])[H])C([H])([H])[H])C([H])([H])C([H])(O[H])C4([H])[H])c([H])nc3[H])C([H])([H])C2([H])[H])c1[H]

>  <smiles>  (193) 
[H]Oc1c([H])c([H])c([H])c([H])c1-c1nnc(N([H])[H])c(N2C([H])([H])C([H])([H])N(C(=O)c3nc(C([H])([H])Oc4c([H])c(-c5sc([H])nc5C([H])([H])[H])c([H])c([H])c4C([H])([H])N([H])C(=O)C4([H])N(C(=O)C([H])(N([H])C(=O)C5(F)C([H])([H])C5([H])[H])C(C([H])([H])[H])(C([H])([H])[H])C([H])([H])[H])C([H])([H])C([H])(O[H])C4([H])[H])c([H])nc3[H])C([H])([H])C2([H])[H])c1[H]

$$$$
193:0:0
     RDKit          3D

 71 78  0  0  1  0  0  0  0  0999 V2000
  -37.3960   13.7950  -23.8900 C   0  0  0  0  0  0  0  0  0  0  0  0
  -36.7430   13.6780  -22.6100 C   0  0  0  0  0  3  0  0  0  0  0  0
  -35.5010   12.9820  -22.4250 C   0  0  0  0  0  0  0  0  0  0  0  0
  -35.5800   12.3980  -24.7890 C   0  0  0  0  0  3  0  0  0  0  0  0
  -36.8280   13.0490  -24.9510 C   0  0  0  0  0  0  0  0  0  0  0  0
  -34.9140   12.3860  -23.5560 C   0  0  0  0  0  3  0  0  0  0  0  0
  -35.2250   12.3570  -19.9070 C   0  0  0  0  0  0  0  0  0  0  0  0
  -33.0530   12.7430  -19.3800 C   0  0  0  0  0  3  0  0  0  0  0  0
  -34.7920   12.8390  -21.1310 C   0  0  0  0  0  0  0  0  0  0  0  0
  -34.2300   12.3180  -18.9230 N   0  0  0  0  0  0  0  0  0  0  0  0
  -33.0820   13.2410  -21.0620 S   0  0  0  0  0  0  0  0  0  0  0  0
  -36.5850   11.8640  -19.5320 C   0  0  0  0  0  1  0  0  0  0  0  0
  -37.5870   12.8690  -26.2610 C   0  0  0  0  0  2  0  0  0  0  0  0
  -36.1910   13.6770  -28.1300 C   0  0  0  0  0  0  0  0  0  0  0  0
  -36.4750   14.8660  -27.9760 O   0  0  0  0  0  0  0  0  0  0  0  0
  -36.7170   12.6910  -27.4040 N   0  0  0  0  0  0  0  0  0  0  0  0
  -36.4410   11.7430  -27.6240 H   0  0  0  0  0  0  0  0  0  0  0  0
  -36.1170   14.4210  -31.1360 C   0  0  0  0  0  0  0  0  0  0  0  0
  -35.1380   13.2470  -29.1550 C   0  0  0  0  0  3  0  0  0  0  0  0
  -33.6610   14.4750  -30.6120 C   0  0  0  0  0  2  0  0  0  0  0  0
  -35.0590   14.1170  -30.3410 N   0  0  0  0  0  0  0  0  0  0  0  0
  -37.2420   13.9500  -30.9300 O   0  0  0  0  0  0  0  0  0  0  0  0
  -33.7470   13.3020  -28.5020 C   0  0  0  0  0  2  0  0  0  0  0  0
  -32.8140   13.6550  -29.6400 C   0  0  0  0  0  3  0  0  0  0  0  0
  -32.3790   12.4790  -30.3040 O   0  0  0  0  0  0  0  0  0  0  0  0
  -33.1440   12.0130  -30.6270 H   0  0  0  0  0  0  0  0  0  0  0  0
  -35.9270   15.3430  -32.3690 C   0  0  0  0  0  3  0  0  0  0  0  0
  -36.6780   14.7380  -33.4830 N   0  0  0  0  0  0  0  0  0  0  0  0
  -36.1600   14.2060  -34.5990 C   0  0  0  0  0  0  0  0  0  0  0  0
  -34.9510   14.2410  -34.8430 O   0  0  0  0  0  0  0  0  0  0  0  0
  -37.6700   14.6080  -33.3420 H   0  0  0  0  0  0  0  0  0  0  0  0
  -37.1500   13.5600  -35.5320 C   0  0  1  0  0  0  0  0  0  0  0  0
  -38.4150   13.4040  -34.9890 F   0  0  0  0  0  0  0  0  0  0  0  0
  -37.0720   13.8500  -37.0130 C   0  0  0  0  0  2  0  0  0  0  0  0
  -36.6870   12.4830  -36.4910 C   0  0  0  0  0  2  0  0  0  0  0  0
  -35.7410   17.4360  -30.8660 C   0  0  0  0  0  1  0  0  0  0  0  0
  -35.9360   17.6910  -33.3280 C   0  0  0  0  0  1  0  0  0  0  0  0
  -37.9210   16.9620  -31.9880 C   0  0  0  0  0  1  0  0  0  0  0  0
  -36.3900   16.8270  -32.1320 C   0  0  1  0  0  0  0  0  0  0  0  0
  -38.5980   14.5310  -24.0780 O   0  0  0  0  0  0  0  0  0  0  0  0
  -40.6570   16.7820  -26.4260 C   0  0  0  0  0  3  0  0  0  0  0  0
  -38.0060   16.4890  -25.6950 C   0  0  0  0  0  3  0  0  0  0  0  0
  -39.7810   17.7150  -27.0680 C   0  0  0  0  0  0  0  0  0  0  0  0
  -38.9010   15.5650  -25.0590 C   0  0  0  0  0  0  0  0  0  0  0  0
  -40.2490   15.7690  -25.4870 C   0  0  0  0  0  0  0  0  0  0  0  0
  -38.4150   17.5020  -26.6580 C   0  0  0  0  0  0  0  0  0  0  0  0
  -41.4740   14.7420  -24.8330 Cl  0  0  0  0  0  0  0  0  0  0  0  0
  -37.1840   18.5410  -27.2880 Cl  0  0  0  0  0  0  0  0  0  0  0  0
  -40.2940   18.7990  -27.9460 N   0  0  0  0  0  0  0  0  0  0  0  0
  -39.8750   19.1880  -29.3340 C   0  0  0  0  0  2  0  0  0  0  0  0
  -41.0640   19.3940  -30.3680 C   0  0  0  0  0  2  0  0  0  0  0  0
  -42.2660   18.6510  -29.9760 N   0  0  0  0  0  0  0  0  0  0  0  0
  -42.7240   18.8250  -28.5970 C   0  0  0  0  0  2  0  0  0  0  0  0
  -41.6150   19.3750  -27.6520 C   0  0  0  0  0  2  0  0  0  0  0  0
  -43.1220   18.0380  -30.9320 C   0  0  0  0  0  0  0  0  0  0  0  0
  -44.4380   18.4950  -31.1800 C   0  0  0  0  0  3  0  0  0  0  0  0
  -45.2610   17.8000  -32.1140 C   0  0  0  0  0  0  0  0  0  0  0  0
  -44.7660   16.7020  -32.7520 N   0  0  0  0  0  0  0  0  0  0  0  0
  -43.5340   16.2420  -32.5200 N   0  0  0  0  0  0  0  0  0  0  0  0
  -42.7300   16.8810  -31.6450 C   0  0  0  0  0  0  0  0  0  0  0  0
  -41.4950   16.2980  -31.4190 N   0  0  0  0  0  0  0  0  0  0  0  0
  -41.0770   16.6280  -30.5580 H   0  0  0  0  0  0  0  0  0  0  0  0
  -41.4550   15.2970  -31.5450 H   0  0  0  0  0  0  0  0  0  0  0  0
  -46.6760   18.1930  -32.4500 C   0  0  0  0  0  0  0  0  0  0  0  0
  -47.5490   17.4470  -33.3110 C   0  0  0  0  0  0  0  0  0  0  0  0
  -48.8700   17.8720  -33.5620 C   0  0  0  0  0  3  0  0  0  0  0  0
  -49.3710   19.0420  -32.9760 C   0  0  0  0  0  3  0  0  0  0  0  0
  -48.5410   19.7990  -32.1390 C   0  0  0  0  0  3  0  0  0  0  0  0
  -47.2210   19.3780  -31.8870 C   0  0  0  0  0  3  0  0  0  0  0  0
  -47.1740   16.2920  -33.9380 O   0  0  0  0  0  0  0  0  0  0  0  0
  -46.2610   16.0830  -33.7350 H   0  0  0  0  0  0  0  0  0  0  0  0
  1  2  1  0
  2  3  2  0
  3  9  1  0
  4  6  2  0
  5  4  1  0
  5  1  2  0
  6  3  1  0
  7 12  1  0
  7 10  1  0
  8 10  2  0
  9 11  1  0
  9  7  2  0
 11  8  1  0
 13  5  1  0
 14 15  2  0
 14 16  1  0
 16 13  1  0
 17 16  1  0
 18 22  2  0
 18 21  1  0
 19 23  1  0
 19 14  1  0
 20 21  1  0
 20 24  1  0
 21 19  1  0
 24 25  1  0
 24 23  1  0
 26 25  1  0
 27 39  1  0
 27 18  1  0
 28 31  1  0
 28 27  1  0
 29 28  1  0
 30 29  2  0
 32 33  1  1
 32 29  1  0
 34 35  1  0
 34 32  1  0
 35 32  1  0
 39 37  1  6
 39 38  1  0
 39 36  1  0
 40  1  1  0
 41 45  1  0
 42 44  1  0
 43 46  1  0
 43 41  2  0
 44 40  1  0
 45 44  2  0
 45 47  1  0
 46 42  2  0
 48 46  1  0
 49 54  1  0
 49 43  1  0
 50 49  1  0
 51 52  1  0
 51 50  1  0
 52 53  1  0
 53 54  1  0
 55 52  1  0
 56 55  1  0
 57 56  2  0
 58 59  2  0
 58 57  1  0
 59 60  1  0
 60 61  1  0
 60 55  2  0
 61 62  1  0
 63 61  1  0
 64 57  1  0
 64 69  1  0
 65 64  2  0
 66 65  1  0
 66 67  2  0
 67 68  1  0
 68 69  2  0
 70 71  1  0
 70 65  1  0
M  ISO  4  40 101  43 100  44 101  49 100
M  END
>  <TORSDO>  (194) 
F 15

>  <SCORE>  (194) 
-14.718

>  <name>  (194) 
193

>  <ligand_id>  (194) 
193

>  <original_smiles>  (194) 
[H]Oc1c([H])c([H])c([H])c([H])c1-c1nnc(N([H])[H])c(N2C([H])([H])C([H])([H])N(c3c([H])c(Cl)c(Oc4c([H])c(-c5sc([H])nc5C([H])([H])[H])c([H])c([H])c4C([H])([H])N([H])C(=O)C4([H])N(C(=O)C([H])(N([H])C(=O)C5(F)C([H])([H])C5([H])[H])C(C([H])([H])[H])(C([H])([H])[H])C([H])([H])[H])C([H])([H])C([H])(O[H])C4([H])[H])c([H])c3Cl)C([H])([H])C2([H])[H])c1[H]

>  <smiles>  (194) 
[H]Oc1c([H])c([H])c([H])c([H])c1-c1nnc(N([H])[H])c(N2C([H])([H])C([H])([H])N(c3c([H])c(Cl)c(Oc4c([H])c(-c5sc([H])nc5C([H])([H])[H])c([H])c([H])c4C([H])([H])N([H])C(=O)C4([H])N(C(=O)C([H])(N([H])C(=O)C5(F)C([H])([H])C5([H])[H])C(C([H])([H])[H])(C([H])([H])[H])C([H])([H])[H])C([H])([H])C([H])(O[H])C4([H])[H])c([H])c3Cl)C([H])([H])C2([H])[H])c1[H]

$$$$
194:0:0
     RDKit          3D

 72 79  0  0  1  0  0  0  0  0999 V2000
  -37.3760   13.4850  -23.6880 C   0  0  0  0  0  0  0  0  0  0  0  0
  -36.6810   13.4150  -22.4570 C   0  0  0  0  0  3  0  0  0  0  0  0
  -35.4130   12.8000  -22.3650 C   0  0  0  0  0  0  0  0  0  0  0  0
  -35.5170   12.3270  -24.7620 C   0  0  0  0  0  3  0  0  0  0  0  0
  -36.7960   12.9190  -24.8470 C   0  0  0  0  0  0  0  0  0  0  0  0
  -34.8330   12.2730  -23.5360 C   0  0  0  0  0  3  0  0  0  0  0  0
  -35.1980   12.2080  -19.8640 C   0  0  0  0  0  0  0  0  0  0  0  0
  -33.0330   12.5780  -19.3100 C   0  0  0  0  0  3  0  0  0  0  0  0
  -34.7240   12.6590  -21.0810 C   0  0  0  0  0  0  0  0  0  0  0  0
  -34.2220   12.1680  -18.8660 N   0  0  0  0  0  0  0  0  0  0  0  0
  -33.0250   13.0660  -20.9930 S   0  0  0  0  0  0  0  0  0  0  0  0
  -36.5800   11.7500  -19.5140 C   0  0  0  0  0  1  0  0  0  0  0  0
  -37.5710   12.9320  -26.1650 C   0  0  0  0  0  2  0  0  0  0  0  0
  -36.1870   13.6990  -28.0730 C   0  0  0  0  0  0  0  0  0  0  0  0
  -36.4440   14.8930  -27.9050 O   0  0  0  0  0  0  0  0  0  0  0  0
  -36.7340   12.7240  -27.3400 N   0  0  0  0  0  0  0  0  0  0  0  0
  -36.4900   11.7690  -27.5630 H   0  0  0  0  0  0  0  0  0  0  0  0
  -36.1300   14.4380  -31.0910 C   0  0  0  0  0  0  0  0  0  0  0  0
  -35.1450   13.2580  -29.1140 C   0  0  0  0  0  3  0  0  0  0  0  0
  -33.6730   14.4900  -30.5830 C   0  0  0  0  0  2  0  0  0  0  0  0
  -35.0680   14.1310  -30.3020 N   0  0  0  0  0  0  0  0  0  0  0  0
  -37.2530   13.9650  -30.8820 O   0  0  0  0  0  0  0  0  0  0  0  0
  -33.7440   13.3020  -28.4800 C   0  0  0  0  0  2  0  0  0  0  0  0
  -32.8170   13.6670  -29.6220 C   0  0  0  0  0  3  0  0  0  0  0  0
  -32.3800   12.4990  -30.2990 O   0  0  0  0  0  0  0  0  0  0  0  0
  -33.1460   12.0290  -30.6150 H   0  0  0  0  0  0  0  0  0  0  0  0
  -35.9460   15.3640  -32.3230 C   0  0  0  0  0  3  0  0  0  0  0  0
  -35.7560   17.4620  -30.8230 C   0  0  0  0  0  1  0  0  0  0  0  0
  -35.9890   17.7120  -33.2830 C   0  0  0  0  0  1  0  0  0  0  0  0
  -37.9480   16.9660  -31.9150 C   0  0  0  0  0  1  0  0  0  0  0  0
  -36.4180   16.8450  -32.0800 C   0  0  1  0  0  0  0  0  0  0  0  0
  -36.6960   14.7610  -33.4380 N   0  0  0  0  0  0  0  0  0  0  0  0
  -36.1790   14.2250  -34.5520 C   0  0  0  0  0  0  0  0  0  0  0  0
  -34.9690   14.2550  -34.7930 O   0  0  0  0  0  0  0  0  0  0  0  0
  -37.6890   14.6360  -33.3000 H   0  0  0  0  0  0  0  0  0  0  0  0
  -37.1690   13.5830  -35.4870 C   0  0  1  0  0  0  0  0  0  0  0  0
  -38.4390   13.4430  -34.9500 F   0  0  0  0  0  0  0  0  0  0  0  0
  -37.0800   13.8650  -36.9690 C   0  0  0  0  0  2  0  0  0  0  0  0
  -36.7110   12.4980  -36.4380 C   0  0  0  0  0  2  0  0  0  0  0  0
  -38.6490   14.0000  -23.7810 O   0  0  0  0  0  0  0  0  0  0  0  0
  -38.9080   15.2860  -23.2240 C   0  0  0  0  0  2  0  0  0  0  0  0
  -38.1850   17.4650  -24.3180 C   0  0  0  0  0  3  0  0  0  0  0  0
  -38.2320   18.3190  -25.4300 C   0  0  0  0  0  3  0  0  0  0  0  0
  -39.8600   16.1130  -25.4160 C   0  0  0  0  0  3  0  0  0  0  0  0
  -38.9910   16.3140  -24.3300 C   0  0  0  0  0  0  0  0  0  0  0  0
  -39.0840   18.0070  -26.5120 C   0  0  0  0  0  0  0  0  0  0  0  0
  -39.9040   16.9290  -26.4860 N   0  0  0  0  0  0  0  0  0  0  0  0
  -39.9820   19.1380  -28.5260 N   0  0  0  0  0  0  0  0  0  0  0  0
  -39.7890   19.4940  -29.9410 C   0  0  0  0  0  2  0  0  0  0  0  0
  -41.0840   19.4710  -30.7830 C   0  0  0  0  0  2  0  0  0  0  0  0
  -42.0830   18.5830  -30.2020 N   0  0  0  0  0  0  0  0  0  0  0  0
  -42.4550   18.8060  -28.8070 C   0  0  0  0  0  2  0  0  0  0  0  0
  -41.3160   19.4670  -27.9920 C   0  0  0  0  0  2  0  0  0  0  0  0
  -38.9010   18.7360  -27.8170 C   0  0  0  0  0  0  0  0  0  0  0  0
  -37.7460   18.9000  -28.2350 O   0  0  0  0  0  0  0  0  0  0  0  0
  -43.0220   18.0010  -31.0840 C   0  0  0  0  0  0  0  0  0  0  0  0
  -44.3270   18.5060  -31.2650 C   0  0  0  0  0  3  0  0  0  0  0  0
  -45.2080   17.8410  -32.1640 C   0  0  0  0  0  0  0  0  0  0  0  0
  -44.7740   16.7350  -32.8320 N   0  0  0  0  0  0  0  0  0  0  0  0
  -43.5460   16.2360  -32.6650 N   0  0  0  0  0  0  0  0  0  0  0  0
  -42.6880   16.8440  -31.8220 C   0  0  0  0  0  0  0  0  0  0  0  0
  -41.4490   16.2460  -31.6690 N   0  0  0  0  0  0  0  0  0  0  0  0
  -40.9750   16.5790  -30.8390 H   0  0  0  0  0  0  0  0  0  0  0  0
  -41.4260   15.2440  -31.7910 H   0  0  0  0  0  0  0  0  0  0  0  0
  -46.6240   18.2770  -32.4270 C   0  0  0  0  0  0  0  0  0  0  0  0
  -47.5430   17.5800  -33.2800 C   0  0  0  0  0  0  0  0  0  0  0  0
  -48.8640   18.0390  -33.4620 C   0  0  0  0  0  3  0  0  0  0  0  0
  -49.3180   19.1950  -32.8120 C   0  0  0  0  0  3  0  0  0  0  0  0
  -48.4410   19.9040  -31.9800 C   0  0  0  0  0  3  0  0  0  0  0  0
  -47.1210   19.4490  -31.7970 C   0  0  0  0  0  3  0  0  0  0  0  0
  -47.2160   16.4440  -33.9640 O   0  0  0  0  0  0  0  0  0  0  0  0
  -46.3010   16.2090  -33.8040 H   0  0  0  0  0  0  0  0  0  0  0  0
  1  2  1  0
  2  3  2  0
  3  9  1  0
  4  6  2  0
  5  4  1  0
  5  1  2  0
  6  3  1  0
  7 12  1  0
  7 10  1  0
  8 10  2  0
  9 11  1  0
  9  7  2  0
 11  8  1  0
 13  5  1  0
 14 15  2  0
 14 16  1  0
 16 13  1  0
 17 16  1  0
 18 22  2  0
 18 21  1  0
 19 23  1  0
 19 14  1  0
 20 21  1  0
 20 24  1  0
 21 19  1  0
 24 25  1  0
 24 23  1  0
 26 25  1  0
 27 31  1  0
 27 18  1  0
 31 29  1  6
 31 30  1  0
 31 28  1  0
 32 35  1  0
 32 27  1  0
 33 32  1  0
 34 33  2  0
 36 37  1  1
 36 33  1  0
 38 39  1  0
 38 36  1  0
 39 36  1  0
 40  1  1  0
 40 41  1  0
 43 42  2  0
 44 45  2  0
 45 42  1  0
 45 41  1  0
 46 47  2  0
 46 43  1  0
 47 44  1  0
 48 53  1  0
 48 54  1  0
 49 48  1  0
 50 51  1  0
 50 49  1  0
 51 52  1  0
 52 53  1  0
 54 46  1  0
 55 54  2  0
 56 51  1  0
 57 56  1  0
 58 57  2  0
 59 60  2  0
 59 58  1  0
 60 61  1  0
 61 62  1  0
 61 56  2  0
 62 63  1  0
 64 62  1  0
 65 58  1  0
 65 70  1  0
 66 65  2  0
 67 66  1  0
 67 68  2  0
 68 69  1  0
 69 70  2  0
 71 72  1  0
 71 66  1  0
M  ISO  4  40 101  41 101  48 100  54 100
M  END
>  <TORSDO>  (195) 
F 16

>  <SCORE>  (195) 
-14.379

>  <name>  (195) 
194

>  <ligand_id>  (195) 
194

>  <original_smiles>  (195) 
[H]Oc1c([H])c([H])c([H])c([H])c1-c1nnc(N([H])[H])c(N2C([H])([H])C([H])([H])N(C(=O)c3nc([H])c(C([H])([H])Oc4c([H])c(-c5sc([H])nc5C([H])([H])[H])c([H])c([H])c4C([H])([H])N([H])C(=O)C4([H])N(C(=O)C([H])(N([H])C(=O)C5(F)C([H])([H])C5([H])[H])C(C([H])([H])[H])(C([H])([H])[H])C([H])([H])[H])C([H])([H])C([H])(O[H])C4([H])[H])c([H])c3[H])C([H])([H])C2([H])[H])c1[H]

>  <smiles>  (195) 
[H]Oc1c([H])c([H])c([H])c([H])c1-c1nnc(N([H])[H])c(N2C([H])([H])C([H])([H])N(C(=O)c3nc([H])c(C([H])([H])Oc4c([H])c(-c5sc([H])nc5C([H])([H])[H])c([H])c([H])c4C([H])([H])N([H])C(=O)C4([H])N(C(=O)C([H])(N([H])C(=O)C5(F)C([H])([H])C5([H])[H])C(C([H])([H])[H])(C([H])([H])[H])C([H])([H])[H])C([H])([H])C([H])(O[H])C4([H])[H])c([H])c3[H])C([H])([H])C2([H])[H])c1[H]

$$$$
195:0:0
     RDKit          3D

 75 83  0  0  1  0  0  0  0  0999 V2000
  -37.4090   13.4790  -23.6830 C   0  0  0  0  0  0  0  0  0  0  0  0
  -36.7010   13.3870  -22.4550 C   0  0  0  0  0  3  0  0  0  0  0  0
  -35.4390   12.7690  -22.3730 C   0  0  0  0  0  0  0  0  0  0  0  0
  -35.5480   12.3220  -24.7690 C   0  0  0  0  0  3  0  0  0  0  0  0
  -36.8240   12.9260  -24.8480 C   0  0  0  0  0  0  0  0  0  0  0  0
  -34.8620   12.2510  -23.5460 C   0  0  0  0  0  3  0  0  0  0  0  0
  -35.2480   12.1950  -19.8650 C   0  0  0  0  0  0  0  0  0  0  0  0
  -33.0830   12.5450  -19.3030 C   0  0  0  0  0  3  0  0  0  0  0  0
  -34.7600   12.6270  -21.0840 C   0  0  0  0  0  0  0  0  0  0  0  0
  -34.2770   12.1520  -18.8620 N   0  0  0  0  0  0  0  0  0  0  0  0
  -33.0590   13.0210  -20.9890 S   0  0  0  0  0  0  0  0  0  0  0  0
  -36.6370   11.7570  -19.5170 C   0  0  0  0  0  1  0  0  0  0  0  0
  -37.5930   12.9520  -26.1710 C   0  0  0  0  0  2  0  0  0  0  0  0
  -36.1950   13.7020  -28.0760 C   0  0  0  0  0  0  0  0  0  0  0  0
  -36.4410   14.8990  -27.9070 O   0  0  0  0  0  0  0  0  0  0  0  0
  -36.7550   12.7340  -27.3450 N   0  0  0  0  0  0  0  0  0  0  0  0
  -36.5200   11.7750  -27.5670 H   0  0  0  0  0  0  0  0  0  0  0  0
  -36.1300   14.4320  -31.0970 C   0  0  0  0  0  0  0  0  0  0  0  0
  -35.1540   13.2540  -29.1150 C   0  0  0  0  0  3  0  0  0  0  0  0
  -33.6750   14.4770  -30.5840 C   0  0  0  0  0  2  0  0  0  0  0  0
  -35.0710   14.1230  -30.3040 N   0  0  0  0  0  0  0  0  0  0  0  0
  -37.2550   13.9620  -30.8890 O   0  0  0  0  0  0  0  0  0  0  0  0
  -33.7530   13.2950  -28.4780 C   0  0  0  0  0  2  0  0  0  0  0  0
  -32.8230   13.6540  -29.6190 C   0  0  0  0  0  3  0  0  0  0  0  0
  -32.3860   12.4830  -30.2910 O   0  0  0  0  0  0  0  0  0  0  0  0
  -33.1510   12.0120  -30.6070 H   0  0  0  0  0  0  0  0  0  0  0  0
  -35.9420   15.3560  -32.3290 C   0  0  0  0  0  3  0  0  0  0  0  0
  -36.7000   14.7570  -33.4420 N   0  0  0  0  0  0  0  0  0  0  0  0
  -36.1900   14.2030  -34.5510 C   0  0  0  0  0  0  0  0  0  0  0  0
  -34.9810   14.2100  -34.7900 O   0  0  0  0  0  0  0  0  0  0  0  0
  -37.6960   14.6500  -33.3040 H   0  0  0  0  0  0  0  0  0  0  0  0
  -37.1890   13.5710  -35.4830 C   0  0  1  0  0  0  0  0  0  0  0  0
  -38.4630   13.4590  -34.9490 F   0  0  0  0  0  0  0  0  0  0  0  0
  -37.0910   13.8350  -36.9680 C   0  0  0  0  0  2  0  0  0  0  0  0
  -36.7480   12.4680  -36.4210 C   0  0  0  0  0  2  0  0  0  0  0  0
  -35.7080   17.4600  -30.8470 C   0  0  0  0  0  1  0  0  0  0  0  0
  -35.9840   17.6990  -33.3020 C   0  0  0  0  0  1  0  0  0  0  0  0
  -37.9240   16.9760  -31.8930 C   0  0  0  0  0  1  0  0  0  0  0  0
  -36.3990   16.8410  -32.0870 C   0  0  1  0  0  0  0  0  0  0  0  0
  -38.6610   14.0490  -23.8220 O   0  0  0  0  0  0  0  0  0  0  0  0
  -39.2860   14.7360  -22.7330 C   0  0  0  0  0  2  0  0  0  0  0  0
  -39.9900   17.2230  -22.2110 C   0  0  0  0  0  2  0  0  0  0  0  0
  -38.6060   17.7840  -22.5220 C   0  0  0  0  0  2  0  0  0  0  0  0
  -39.7280   16.1090  -23.2220 C   0  0  0  0  0  3  0  0  0  0  0  0
  -38.5660   16.8870  -23.6790 N   0  0  0  0  0  0  0  0  0  0  0  0
  -40.1820   19.3160  -28.3780 N   0  0  0  0  0  0  0  0  0  0  0  0
  -39.8380   19.3440  -29.7970 C   0  0  0  0  0  2  0  0  0  0  0  0
  -41.0990   19.4290  -30.7030 C   0  0  0  0  0  2  0  0  0  0  0  0
  -42.2070   18.6450  -30.1510 N   0  0  0  0  0  0  0  0  0  0  0  0
  -42.5920   18.8480  -28.7530 C   0  0  0  0  0  2  0  0  0  0  0  0
  -41.5380   19.6490  -27.9630 C   0  0  0  0  0  2  0  0  0  0  0  0
  -38.2850   18.7880  -25.2940 C   0  0  0  0  0  3  0  0  0  0  0  0
  -39.3600   16.8020  -26.0440 C   0  0  0  0  0  3  0  0  0  0  0  0
  -38.6540   19.3950  -26.5070 C   0  0  0  0  0  0  0  0  0  0  0  0
  -38.7320   17.4850  -24.9690 C   0  0  0  0  0  0  0  0  0  0  0  0
  -39.4330   18.6540  -27.4100 C   0  0  0  0  0  0  0  0  0  0  0  0
  -38.3010   20.8520  -26.7630 C   0  0  0  0  0  1  0  0  0  0  0  0
  -39.7310   17.3630  -27.2110 N   0  0  0  0  0  0  0  0  0  0  0  0
  -43.1240   18.0350  -31.0310 C   0  0  0  0  0  0  0  0  0  0  0  0
  -44.4250   18.5390  -31.2310 C   0  0  0  0  0  3  0  0  0  0  0  0
  -45.3010   17.8600  -32.1200 C   0  0  0  0  0  0  0  0  0  0  0  0
  -44.8680   16.7350  -32.7590 N   0  0  0  0  0  0  0  0  0  0  0  0
  -43.6440   16.2340  -32.5690 N   0  0  0  0  0  0  0  0  0  0  0  0
  -42.7880   16.8560  -31.7330 C   0  0  0  0  0  0  0  0  0  0  0  0
  -41.5590   16.2490  -31.5480 N   0  0  0  0  0  0  0  0  0  0  0  0
  -41.0970   16.5830  -30.7120 H   0  0  0  0  0  0  0  0  0  0  0  0
  -41.5440   15.2460  -31.6580 H   0  0  0  0  0  0  0  0  0  0  0  0
  -46.7110   18.3000  -32.4010 C   0  0  0  0  0  0  0  0  0  0  0  0
  -47.6350   17.5850  -33.2320 C   0  0  0  0  0  0  0  0  0  0  0  0
  -48.9490   18.0520  -33.4360 C   0  0  0  0  0  3  0  0  0  0  0  0
  -49.3920   19.2360  -32.8300 C   0  0  0  0  0  3  0  0  0  0  0  0
  -48.5100   19.9630  -32.0200 C   0  0  0  0  0  3  0  0  0  0  0  0
  -47.1970   19.5010  -31.8160 C   0  0  0  0  0  3  0  0  0  0  0  0
  -47.3170   16.4210  -33.8720 O   0  0  0  0  0  0  0  0  0  0  0  0
  -46.4050   16.1820  -33.7000 H   0  0  0  0  0  0  0  0  0  0  0  0
  1  2  1  0
  2  3  2  0
  3  9  1  0
  4  6  2  0
  5  4  1  0
  5  1  2  0
  6  3  1  0
  7 12  1  0
  7 10  1  0
  8 10  2  0
  9 11  1  0
  9  7  2  0
 11  8  1  0
 13  5  1  0
 14 15  2  0
 14 16  1  0
 16 13  1  0
 17 16  1  0
 18 22  2  0
 18 21  1  0
 19 23  1  0
 19 14  1  0
 20 21  1  0
 20 24  1  0
 21 19  1  0
 24 25  1  0
 24 23  1  0
 26 25  1  0
 27 39  1  0
 27 18  1  0
 28 31  1  0
 28 27  1  0
 29 28  1  0
 30 29  2  0
 32 33  1  1
 32 29  1  0
 34 35  1  0
 34 32  1  0
 35 32  1  0
 39 37  1  6
 39 38  1  0
 39 36  1  0
 40  1  1  0
 40 41  1  0
 43 42  1  0
 44 41  1  0
 44 42  1  0
 45 44  1  0
 45 43  1  0
 46 51  1  0
 46 56  1  0
 47 46  1  0
 48 49  1  0
 48 47  1  0
 49 50  1  0
 50 51  1  0
 52 55  1  0
 53 55  2  0
 54 52  2  0
 55 45  1  0
 56 58  2  0
 56 54  1  0
 57 54  1  0
 58 53  1  0
 59 49  1  0
 60 59  1  0
 61 60  2  0
 62 63  2  0
 62 61  1  0
 63 64  1  0
 64 65  1  0
 64 59  2  0
 65 66  1  0
 67 65  1  0
 68 61  1  0
 68 73  1  0
 69 68  2  0
 70 69  1  0
 70 71  2  0
 71 72  1  0
 72 73  2  0
 74 75  1  0
 74 69  1  0
M  ISO  4  40 101  41 101  46 100  56 100
M  END
>  <TORSDO>  (196) 
F 16

>  <SCORE>  (196) 
-14.387

>  <name>  (196) 
195

>  <ligand_id>  (196) 
195

>  <original_smiles>  (196) 
[H]Oc1c([H])c([H])c([H])c([H])c1-c1nnc(N([H])[H])c(N2C([H])([H])C([H])([H])N(c3nc([H])c(N4C([H])([H])C([H])([H])C4([H])C([H])([H])Oc4c([H])c(-c5sc([H])nc5C([H])([H])[H])c([H])c([H])c4C([H])([H])N([H])C(=O)C4([H])N(C(=O)C([H])(N([H])C(=O)C5(F)C([H])([H])C5([H])[H])C(C([H])([H])[H])(C([H])([H])[H])C([H])([H])[H])C([H])([H])C([H])(O[H])C4([H])[H])c([H])c3C([H])([H])[H])C([H])([H])C2([H])[H])c1[H]

>  <smiles>  (196) 
[H]Oc1c([H])c([H])c([H])c([H])c1-c1nnc(N([H])[H])c(N2C([H])([H])C([H])([H])N(c3nc([H])c(N4C([H])([H])C([H])([H])C4([H])C([H])([H])Oc4c([H])c(-c5sc([H])nc5C([H])([H])[H])c([H])c([H])c4C([H])([H])N([H])C(=O)C4([H])N(C(=O)C([H])(N([H])C(=O)C5(F)C([H])([H])C5([H])[H])C(C([H])([H])[H])(C([H])([H])[H])C([H])([H])[H])C([H])([H])C([H])(O[H])C4([H])[H])c([H])c3C([H])([H])[H])C([H])([H])C2([H])[H])c1[H]

$$$$
196:0:0
     RDKit          3D

 72 79  0  0  1  0  0  0  0  0999 V2000
  -37.4610   13.6900  -23.8310 C   0  0  0  0  0  0  0  0  0  0  0  0
  -36.7890   13.6160  -22.5640 C   0  0  0  0  0  3  0  0  0  0  0  0
  -35.5530   12.9240  -22.3690 C   0  0  0  0  0  0  0  0  0  0  0  0
  -35.6300   12.2910  -24.7140 C   0  0  0  0  0  3  0  0  0  0  0  0
  -36.8720   12.9470  -24.8890 C   0  0  0  0  0  0  0  0  0  0  0  0
  -34.9690   12.2960  -23.4810 C   0  0  0  0  0  3  0  0  0  0  0  0
  -35.3230   12.3850  -19.8400 C   0  0  0  0  0  0  0  0  0  0  0  0
  -33.1520   12.7500  -19.2960 C   0  0  0  0  0  3  0  0  0  0  0  0
  -34.8610   12.8180  -21.0690 C   0  0  0  0  0  0  0  0  0  0  0  0
  -34.3420   12.3560  -18.8420 N   0  0  0  0  0  0  0  0  0  0  0  0
  -33.1490   13.2010  -20.9900 S   0  0  0  0  0  0  0  0  0  0  0  0
  -36.7000   11.9310  -19.4800 C   0  0  0  0  0  1  0  0  0  0  0  0
  -37.5550   12.8400  -26.2240 C   0  0  0  0  0  2  0  0  0  0  0  0
  -36.1960   13.6490  -28.1020 C   0  0  0  0  0  0  0  0  0  0  0  0
  -36.5130   14.8340  -27.9580 O   0  0  0  0  0  0  0  0  0  0  0  0
  -36.6820   12.6530  -27.3590 N   0  0  0  0  0  0  0  0  0  0  0  0
  -36.3800   11.7100  -27.5620 H   0  0  0  0  0  0  0  0  0  0  0  0
  -36.1340   14.3930  -31.1080 C   0  0  0  0  0  0  0  0  0  0  0  0
  -35.1410   13.2330  -29.1260 C   0  0  0  0  0  3  0  0  0  0  0  0
  -33.6800   14.4820  -30.5750 C   0  0  0  0  0  2  0  0  0  0  0  0
  -35.0730   14.1040  -30.3100 N   0  0  0  0  0  0  0  0  0  0  0  0
  -37.2550   13.9080  -30.9030 O   0  0  0  0  0  0  0  0  0  0  0  0
  -33.7560   13.3060  -28.4680 C   0  0  0  0  0  2  0  0  0  0  0  0
  -32.8250   13.6730  -29.6000 C   0  0  0  0  0  3  0  0  0  0  0  0
  -32.3720   12.5020  -30.2620 O   0  0  0  0  0  0  0  0  0  0  0  0
  -33.1300   12.0260  -30.5870 H   0  0  0  0  0  0  0  0  0  0  0  0
  -35.9510   15.3140  -32.3420 C   0  0  0  0  0  3  0  0  0  0  0  0
  -36.7110   14.7140  -33.4500 N   0  0  0  0  0  0  0  0  0  0  0  0
  -36.2020   14.1910  -34.5750 C   0  0  0  0  0  0  0  0  0  0  0  0
  -34.9960   14.2350  -34.8320 O   0  0  0  0  0  0  0  0  0  0  0  0
  -37.7010   14.5770  -33.3000 H   0  0  0  0  0  0  0  0  0  0  0  0
  -37.1980   13.5470  -35.5040 C   0  0  1  0  0  0  0  0  0  0  0  0
  -38.4530   13.3700  -34.9440 F   0  0  0  0  0  0  0  0  0  0  0  0
  -37.1450   13.8590  -36.9810 C   0  0  0  0  0  2  0  0  0  0  0  0
  -36.7370   12.4900  -36.4840 C   0  0  0  0  0  2  0  0  0  0  0  0
  -35.7600   17.4040  -30.8320 C   0  0  0  0  0  1  0  0  0  0  0  0
  -35.9530   17.6660  -33.2930 C   0  0  0  0  0  1  0  0  0  0  0  0
  -37.9410   16.9370  -31.9590 C   0  0  0  0  0  1  0  0  0  0  0  0
  -36.4100   16.8000  -32.0990 C   0  0  1  0  0  0  0  0  0  0  0  0
  -38.5570   14.5880  -23.9450 O   0  0  0  0  0  0  0  0  0  0  0  0
  -39.7250   14.6710  -24.8760 C   0  0  0  0  0  2  0  0  0  0  0  0
  -39.9550   18.7140  -28.3830 N   0  0  0  0  0  0  0  0  0  0  0  0
  -39.6340   19.1130  -29.7880 C   0  0  0  0  0  2  0  0  0  0  0  0
  -40.8600   19.2550  -30.7600 C   0  0  0  0  0  2  0  0  0  0  0  0
  -42.0650   18.6200  -30.2270 N   0  0  0  0  0  0  0  0  0  0  0  0
  -42.4200   18.9080  -28.8360 C   0  0  0  0  0  2  0  0  0  0  0  0
  -41.2040   19.3680  -27.9770 C   0  0  0  0  0  2  0  0  0  0  0  0
  -40.2930   15.1640  -28.7010 C   0  0  0  0  0  3  0  0  0  0  0  0
  -39.7950   15.3930  -26.3140 C   0  0  0  0  0  0  0  0  0  0  0  0
  -40.2440   14.6080  -27.4160 C   0  0  0  0  0  0  0  0  0  0  0  0
  -39.6670   16.8150  -26.6160 C   0  0  0  0  0  0  0  0  0  0  0  0
  -39.8740   17.3240  -27.9710 C   0  0  0  0  0  0  0  0  0  0  0  0
  -40.1030   16.4620  -28.9770 N   0  0  0  0  0  0  0  0  0  0  0  0
  -40.8100   12.9760  -27.2690 Cl  0  0  0  0  0  0  0  0  0  0  0  0
  -39.3150   17.9170  -25.3310 Cl  0  0  0  0  0  0  0  0  0  0  0  0
  -43.0100   18.0230  -31.0970 C   0  0  0  0  0  0  0  0  0  0  0  0
  -44.3200   18.5290  -31.2370 C   0  0  0  0  0  3  0  0  0  0  0  0
  -45.2330   17.8730  -32.1080 C   0  0  0  0  0  0  0  0  0  0  0  0
  -44.8310   16.7620  -32.7880 N   0  0  0  0  0  0  0  0  0  0  0  0
  -43.6020   16.2570  -32.6580 N   0  0  0  0  0  0  0  0  0  0  0  0
  -42.7090   16.8610  -31.8460 C   0  0  0  0  0  0  0  0  0  0  0  0
  -41.4760   16.2450  -31.7440 N   0  0  0  0  0  0  0  0  0  0  0  0
  -40.9580   16.5320  -30.9130 H   0  0  0  0  0  0  0  0  0  0  0  0
  -41.4520   15.2560  -31.9380 H   0  0  0  0  0  0  0  0  0  0  0  0
  -46.6500   18.3250  -32.3300 C   0  0  0  0  0  0  0  0  0  0  0  0
  -47.6070   17.6370  -33.1470 C   0  0  0  0  0  0  0  0  0  0  0  0
  -48.9260   18.1130  -33.2890 C   0  0  0  0  0  3  0  0  0  0  0  0
  -49.3430   19.2820  -32.6340 C   0  0  0  0  0  3  0  0  0  0  0  0
  -48.4280   19.9820  -31.8360 C   0  0  0  0  0  3  0  0  0  0  0  0
  -47.1100   19.5100  -31.6930 C   0  0  0  0  0  3  0  0  0  0  0  0
  -47.3180   16.4910  -33.8320 O   0  0  0  0  0  0  0  0  0  0  0  0
  -46.4020   16.2460  -33.7020 H   0  0  0  0  0  0  0  0  0  0  0  0
  1  2  1  0
  2  3  2  0
  3  9  1  0
  4  6  2  0
  5  4  1  0
  5  1  2  0
  6  3  1  0
  7 12  1  0
  7 10  1  0
  8 10  2  0
  9 11  1  0
  9  7  2  0
 11  8  1  0
 13  5  1  0
 14 15  2  0
 14 16  1  0
 16 13  1  0
 17 16  1  0
 18 22  2  0
 18 21  1  0
 19 23  1  0
 19 14  1  0
 20 21  1  0
 20 24  1  0
 21 19  1  0
 24 25  1  0
 24 23  1  0
 26 25  1  0
 27 39  1  0
 27 18  1  0
 28 31  1  0
 28 27  1  0
 29 28  1  0
 30 29  2  0
 32 33  1  1
 32 29  1  0
 34 35  1  0
 34 32  1  0
 35 32  1  0
 39 37  1  6
 39 38  1  0
 39 36  1  0
 40  1  1  0
 41 40  1  0
 42 47  1  0
 42 52  1  0
 43 42  1  0
 44 45  1  0
 44 43  1  0
 45 46  1  0
 46 47  1  0
 48 50  1  0
 49 41  1  0
 50 54  1  0
 50 49  2  0
 51 49  1  0
 51 55  1  0
 52 51  2  0
 53 48  2  0
 53 52  1  0
 56 45  1  0
 57 56  1  0
 58 57  2  0
 59 60  2  0
 59 58  1  0
 60 61  1  0
 61 62  1  0
 61 56  2  0
 62 63  1  0
 64 62  1  0
 65 58  1  0
 65 70  1  0
 66 65  2  0
 67 66  1  0
 67 68  2  0
 68 69  1  0
 69 70  2  0
 71 72  1  0
 71 66  1  0
M  ISO  4  40 101  41 101  42 100  52 100
M  END
>  <TORSDO>  (197) 
F 15

>  <SCORE>  (197) 
-14.761

>  <name>  (197) 
196

>  <ligand_id>  (197) 
196

>  <original_smiles>  (197) 
[H]Oc1c([H])c([H])c([H])c([H])c1-c1nnc(N([H])[H])c(N2C([H])([H])C([H])([H])N(c3nc([H])c(Cl)c(C([H])([H])Oc4c([H])c(-c5sc([H])nc5C([H])([H])[H])c([H])c([H])c4C([H])([H])N([H])C(=O)C4([H])N(C(=O)C([H])(N([H])C(=O)C5(F)C([H])([H])C5([H])[H])C(C([H])([H])[H])(C([H])([H])[H])C([H])([H])[H])C([H])([H])C([H])(O[H])C4([H])[H])c3Cl)C([H])([H])C2([H])[H])c1[H]

>  <smiles>  (197) 
[H]Oc1c([H])c([H])c([H])c([H])c1-c1nnc(N([H])[H])c(N2C([H])([H])C([H])([H])N(c3nc([H])c(Cl)c(C([H])([H])Oc4c([H])c(-c5sc([H])nc5C([H])([H])[H])c([H])c([H])c4C([H])([H])N([H])C(=O)C4([H])N(C(=O)C([H])(N([H])C(=O)C5(F)C([H])([H])C5([H])[H])C(C([H])([H])[H])(C([H])([H])[H])C([H])([H])[H])C([H])([H])C([H])(O[H])C4([H])[H])c3Cl)C([H])([H])C2([H])[H])c1[H]

$$$$
197:0:0
     RDKit          3D

 69 76  0  0  1  0  0  0  0  0999 V2000
  -37.4330   13.7240  -23.8280 C   0  0  0  0  0  0  0  0  0  0  0  0
  -36.7510   13.6010  -22.5670 C   0  0  0  0  0  3  0  0  0  0  0  0
  -35.4920   12.9420  -22.4120 C   0  0  0  0  0  0  0  0  0  0  0  0
  -35.5890   12.3970  -24.7800 C   0  0  0  0  0  3  0  0  0  0  0  0
  -36.8580   13.0160  -24.9200 C   0  0  0  0  0  0  0  0  0  0  0  0
  -34.9050   12.3810  -23.5580 C   0  0  0  0  0  3  0  0  0  0  0  0
  -35.2040   12.3220  -19.9000 C   0  0  0  0  0  0  0  0  0  0  0  0
  -33.0350   12.7290  -19.3810 C   0  0  0  0  0  3  0  0  0  0  0  0
  -34.7770   12.8040  -21.1240 C   0  0  0  0  0  0  0  0  0  0  0  0
  -34.2060   12.2920  -18.9200 N   0  0  0  0  0  0  0  0  0  0  0  0
  -33.0730   13.2290  -21.0600 S   0  0  0  0  0  0  0  0  0  0  0  0
  -36.5610   11.8210  -19.5240 C   0  0  0  0  0  1  0  0  0  0  0  0
  -37.6020   12.7570  -26.2210 C   0  0  0  0  0  2  0  0  0  0  0  0
  -36.1990   13.6710  -28.1000 C   0  0  0  0  0  0  0  0  0  0  0  0
  -36.4260   14.8650  -27.9250 O   0  0  0  0  0  0  0  0  0  0  0  0
  -36.7490   12.6770  -27.3970 N   0  0  0  0  0  0  0  0  0  0  0  0
  -36.4910   11.7410  -27.6750 H   0  0  0  0  0  0  0  0  0  0  0  0
  -36.1510   14.4320  -31.1090 C   0  0  0  0  0  0  0  0  0  0  0  0
  -35.1630   13.2400  -29.1400 C   0  0  0  0  0  3  0  0  0  0  0  0
  -33.6930   14.4800  -30.5950 C   0  0  0  0  0  2  0  0  0  0  0  0
  -35.0890   14.1210  -30.3200 N   0  0  0  0  0  0  0  0  0  0  0  0
  -37.2770   13.9650  -30.8970 O   0  0  0  0  0  0  0  0  0  0  0  0
  -33.7690   13.2890  -28.4950 C   0  0  0  0  0  2  0  0  0  0  0  0
  -32.8400   13.6520  -29.6330 C   0  0  0  0  0  3  0  0  0  0  0  0
  -32.4100   12.4790  -30.3050 O   0  0  0  0  0  0  0  0  0  0  0  0
  -33.1770   12.0160  -30.6250 H   0  0  0  0  0  0  0  0  0  0  0  0
  -35.9640   15.3560  -32.3400 C   0  0  0  0  0  3  0  0  0  0  0  0
  -36.7240   14.7580  -33.4530 N   0  0  0  0  0  0  0  0  0  0  0  0
  -36.2140   14.2090  -34.5640 C   0  0  0  0  0  0  0  0  0  0  0  0
  -35.0040   14.2210  -34.8070 O   0  0  0  0  0  0  0  0  0  0  0  0
  -37.7190   14.6470  -33.3130 H   0  0  0  0  0  0  0  0  0  0  0  0
  -37.2130   13.5750  -35.4960 C   0  0  1  0  0  0  0  0  0  0  0  0
  -38.4840   13.4560  -34.9570 F   0  0  0  0  0  0  0  0  0  0  0  0
  -37.1220   13.8480  -36.9790 C   0  0  0  0  0  2  0  0  0  0  0  0
  -36.7700   12.4800  -36.4410 C   0  0  0  0  0  2  0  0  0  0  0  0
  -35.7370   17.4570  -30.8520 C   0  0  0  0  0  1  0  0  0  0  0  0
  -35.9960   17.6990  -33.3090 C   0  0  0  0  0  1  0  0  0  0  0  0
  -37.9470   16.9800  -31.9140 C   0  0  0  0  0  1  0  0  0  0  0  0
  -36.4200   16.8420  -32.0970 C   0  0  1  0  0  0  0  0  0  0  0  0
  -38.6040   14.5220  -23.8690 O   0  0  0  0  0  0  0  0  0  0  0  0
  -38.7100   15.7990  -26.3240 C   0  0  0  0  0  2  0  0  0  0  0  0
  -39.7750   16.6970  -24.8530 C   0  0  0  0  0  2  0  0  0  0  0  0
  -39.8490   16.8650  -26.4170 C   0  0  0  0  0  3  0  0  0  0  0  0
  -39.3120   15.1930  -25.0200 C   0  0  0  0  0  3  0  0  0  0  0  0
  -40.3440   18.8890  -28.0300 N   0  0  0  0  0  0  0  0  0  0  0  0
  -40.0230   19.4950  -29.3580 C   0  0  0  0  0  2  0  0  0  0  0  0
  -41.2260   19.5110  -30.3730 C   0  0  0  0  0  2  0  0  0  0  0  0
  -42.3070   18.6140  -29.9570 N   0  0  0  0  0  0  0  0  0  0  0  0
  -42.7790   18.7290  -28.5790 C   0  0  0  0  0  2  0  0  0  0  0  0
  -41.6960   19.2800  -27.6180 C   0  0  0  0  0  2  0  0  0  0  0  0
  -39.4520   18.1810  -27.2360 C   0  0  0  0  0  0  0  0  0  0  0  0
  -38.2510   18.4510  -27.3070 O   0  0  0  0  0  0  0  0  0  0  0  0
  -43.1570   18.0140  -30.9210 C   0  0  0  0  0  0  0  0  0  0  0  0
  -44.4810   18.4520  -31.1620 C   0  0  0  0  0  3  0  0  0  0  0  0
  -45.2850   17.7580  -32.1110 C   0  0  0  0  0  0  0  0  0  0  0  0
  -44.7680   16.6810  -32.7680 N   0  0  0  0  0  0  0  0  0  0  0  0
  -43.5280   16.2410  -32.5440 N   0  0  0  0  0  0  0  0  0  0  0  0
  -42.7390   16.8800  -31.6550 C   0  0  0  0  0  0  0  0  0  0  0  0
  -41.4910   16.3260  -31.4380 N   0  0  0  0  0  0  0  0  0  0  0  0
  -41.0750   16.6630  -30.5800 H   0  0  0  0  0  0  0  0  0  0  0  0
  -41.4230   15.3260  -31.5700 H   0  0  0  0  0  0  0  0  0  0  0  0
  -46.7090   18.1280  -32.4410 C   0  0  0  0  0  0  0  0  0  0  0  0
  -47.5630   17.3810  -33.3200 C   0  0  0  0  0  0  0  0  0  0  0  0
  -48.8920   17.7830  -33.5650 C   0  0  0  0  0  3  0  0  0  0  0  0
  -49.4190   18.9300  -32.9570 C   0  0  0  0  0  3  0  0  0  0  0  0
  -48.6070   19.6860  -32.1020 C   0  0  0  0  0  3  0  0  0  0  0  0
  -47.2790   19.2900  -31.8550 C   0  0  0  0  0  3  0  0  0  0  0  0
  -47.1620   16.2470  -33.9670 O   0  0  0  0  0  0  0  0  0  0  0  0
  -46.2450   16.0530  -33.7660 H   0  0  0  0  0  0  0  0  0  0  0  0
  1  2  1  0
  2  3  2  0
  3  9  1  0
  4  6  2  0
  5  4  1  0
  5  1  2  0
  6  3  1  0
  7 12  1  0
  7 10  1  0
  8 10  2  0
  9 11  1  0
  9  7  2  0
 11  8  1  0
 13  5  1  0
 14 15  2  0
 14 16  1  0
 16 13  1  0
 17 16  1  0
 18 22  2  0
 18 21  1  0
 19 23  1  0
 19 14  1  0
 20 21  1  0
 20 24  1  0
 21 19  1  0
 24 25  1  0
 24 23  1  0
 26 25  1  0
 27 39  1  0
 27 18  1  0
 28 31  1  0
 28 27  1  0
 29 28  1  0
 30 29  2  0
 32 33  1  1
 32 29  1  0
 34 35  1  0
 34 32  1  0
 35 32  1  0
 39 37  1  6
 39 38  1  0
 39 36  1  0
 40  1  1  0
 41 44  1  0
 43 51  1  0
 43 41  1  0
 43 42  1  0
 44 42  1  0
 44 40  1  0
 45 50  1  0
 45 51  1  0
 46 45  1  0
 47 48  1  0
 47 46  1  0
 48 49  1  0
 49 50  1  0
 52 51  2  0
 53 48  1  0
 54 53  1  0
 55 54  2  0
 56 57  2  0
 56 55  1  0
 57 58  1  0
 58 59  1  0
 58 53  2  0
 59 60  1  0
 61 59  1  0
 62 55  1  0
 62 67  1  0
 63 62  2  0
 64 63  1  0
 64 65  2  0
 65 66  1  0
 66 67  2  0
 68 69  1  0
 68 63  1  0
M  ISO  4  40 101  44 101  45 100  51 100
M  END
>  <TORSDO>  (198) 
F 15

>  <SCORE>  (198) 
-14.360

>  <name>  (198) 
197

>  <ligand_id>  (198) 
197

>  <original_smiles>  (198) 
[H]Oc1c([H])c([H])c([H])c([H])c1-c1nnc(N([H])[H])c(N2C([H])([H])C([H])([H])N(C(=O)C3([H])C([H])([H])C([H])(Oc4c([H])c(-c5sc([H])nc5C([H])([H])[H])c([H])c([H])c4C([H])([H])N([H])C(=O)C4([H])N(C(=O)C([H])(N([H])C(=O)C5(F)C([H])([H])C5([H])[H])C(C([H])([H])[H])(C([H])([H])[H])C([H])([H])[H])C([H])([H])C([H])(O[H])C4([H])[H])C3([H])[H])C([H])([H])C2([H])[H])c1[H]

>  <smiles>  (198) 
[H]Oc1c([H])c([H])c([H])c([H])c1-c1nnc(N([H])[H])c(N2C([H])([H])C([H])([H])N(C(=O)C3([H])C([H])([H])C([H])(Oc4c([H])c(-c5sc([H])nc5C([H])([H])[H])c([H])c([H])c4C([H])([H])N([H])C(=O)C4([H])N(C(=O)C([H])(N([H])C(=O)C5(F)C([H])([H])C5([H])[H])C(C([H])([H])[H])(C([H])([H])[H])C([H])([H])[H])C([H])([H])C([H])(O[H])C4([H])[H])C3([H])[H])C([H])([H])C2([H])[H])c1[H]

$$$$
198:0:0
     RDKit          3D

 71 79  0  0  1  0  0  0  0  0999 V2000
  -37.3760   13.5960  -23.7490 C   0  0  0  0  0  0  0  0  0  0  0  0
  -36.6970   13.5170  -22.5060 C   0  0  0  0  0  3  0  0  0  0  0  0
  -35.4170   12.9220  -22.4010 C   0  0  0  0  0  0  0  0  0  0  0  0
  -35.5070   12.4270  -24.7950 C   0  0  0  0  0  3  0  0  0  0  0  0
  -36.8030   12.9820  -24.8910 C   0  0  0  0  0  0  0  0  0  0  0  0
  -34.8180   12.4130  -23.5710 C   0  0  0  0  0  3  0  0  0  0  0  0
  -35.1500   12.3190  -19.9020 C   0  0  0  0  0  0  0  0  0  0  0  0
  -32.9920   12.7650  -19.3690 C   0  0  0  0  0  3  0  0  0  0  0  0
  -34.7100   12.7990  -21.1210 C   0  0  0  0  0  0  0  0  0  0  0  0
  -34.1600   12.3060  -18.9150 N   0  0  0  0  0  0  0  0  0  0  0  0
  -33.0230   13.2640  -21.0480 S   0  0  0  0  0  0  0  0  0  0  0  0
  -36.5070   11.8020  -19.5430 C   0  0  0  0  0  1  0  0  0  0  0  0
  -37.5780   12.8860  -26.2090 C   0  0  0  0  0  2  0  0  0  0  0  0
  -36.1920   13.6810  -28.1230 C   0  0  0  0  0  0  0  0  0  0  0  0
  -36.4610   14.8720  -27.9980 O   0  0  0  0  0  0  0  0  0  0  0  0
  -36.7220   12.7100  -27.3740 N   0  0  0  0  0  0  0  0  0  0  0  0
  -36.4520   11.7590  -27.5890 H   0  0  0  0  0  0  0  0  0  0  0  0
  -36.1290   14.4350  -31.1280 C   0  0  0  0  0  0  0  0  0  0  0  0
  -35.1450   13.2450  -29.1540 C   0  0  0  0  0  3  0  0  0  0  0  0
  -33.6710   14.4820  -30.6120 C   0  0  0  0  0  2  0  0  0  0  0  0
  -35.0680   14.1210  -30.3380 N   0  0  0  0  0  0  0  0  0  0  0  0
  -37.2550   13.9670  -30.9190 O   0  0  0  0  0  0  0  0  0  0  0  0
  -33.7510   13.2980  -28.5080 C   0  0  0  0  0  2  0  0  0  0  0  0
  -32.8210   13.6560  -29.6480 C   0  0  0  0  0  3  0  0  0  0  0  0
  -32.3910   12.4830  -30.3190 O   0  0  0  0  0  0  0  0  0  0  0  0
  -33.1590   12.0190  -30.6380 H   0  0  0  0  0  0  0  0  0  0  0  0
  -35.9420   15.3600  -32.3590 C   0  0  0  0  0  3  0  0  0  0  0  0
  -36.6920   14.7560  -33.4730 N   0  0  0  0  0  0  0  0  0  0  0  0
  -36.1740   14.2010  -34.5780 C   0  0  0  0  0  0  0  0  0  0  0  0
  -34.9630   14.2160  -34.8110 O   0  0  0  0  0  0  0  0  0  0  0  0
  -37.6890   14.6440  -33.3380 H   0  0  0  0  0  0  0  0  0  0  0  0
  -37.1640   13.5590  -35.5120 C   0  0  1  0  0  0  0  0  0  0  0  0
  -38.4390   13.4380  -34.9820 F   0  0  0  0  0  0  0  0  0  0  0  0
  -37.0630   13.8220  -36.9970 C   0  0  0  0  0  2  0  0  0  0  0  0
  -36.7120   12.4570  -36.4460 C   0  0  0  0  0  2  0  0  0  0  0  0
  -35.7350   17.4640  -30.8720 C   0  0  0  0  0  1  0  0  0  0  0  0
  -35.9840   17.7040  -33.3300 C   0  0  0  0  0  1  0  0  0  0  0  0
  -37.9380   16.9730  -31.9420 C   0  0  0  0  0  1  0  0  0  0  0  0
  -36.4090   16.8440  -32.1190 C   0  0  1  0  0  0  0  0  0  0  0  0
  -38.5890   14.2530  -23.8280 O   0  0  0  0  0  0  0  0  0  0  0  0
  -37.9160   17.2230  -26.1480 C   0  0  0  0  0  3  0  0  0  0  0  0
  -37.7000   16.0770  -25.3130 C   0  0  0  0  0  3  0  0  0  0  0  0
  -39.8820   16.2580  -24.1830 C   0  0  0  0  0  3  0  0  0  0  0  0
  -39.1510   17.8510  -25.9880 C   0  0  0  0  0  0  0  0  0  0  0  0
  -40.0330   17.4230  -24.9500 C   0  0  0  0  0  0  0  0  0  0  0  0
  -38.6920   15.5180  -24.4230 C   0  0  0  0  0  0  0  0  0  0  0  0
  -40.9490   18.5800  -25.1620 C   0  0  0  0  0  2  0  0  0  0  0  0
  -40.0050   19.0620  -26.4010 C   0  0  0  0  0  3  0  0  0  0  0  0
  -40.6460   19.1100  -27.7640 N   0  0  0  0  0  0  0  0  0  0  0  0
  -40.0520   19.4980  -29.0750 C   0  0  0  0  0  2  0  0  0  0  0  0
  -41.1460   19.5740  -30.2270 C   0  0  0  0  0  2  0  0  0  0  0  0
  -42.3610   18.8110  -29.8930 N   0  0  0  0  0  0  0  0  0  0  0  0
  -42.8930   18.9560  -28.5420 C   0  0  0  0  0  2  0  0  0  0  0  0
  -41.9370   19.7810  -27.6700 C   0  0  0  0  0  2  0  0  0  0  0  0
  -43.1810   18.2140  -30.8760 C   0  0  0  0  0  0  0  0  0  0  0  0
  -44.5000   18.6540  -31.1190 C   0  0  0  0  0  3  0  0  0  0  0  0
  -45.2920   17.9840  -32.0900 C   0  0  0  0  0  0  0  0  0  0  0  0
  -44.7630   16.9260  -32.7680 N   0  0  0  0  0  0  0  0  0  0  0  0
  -43.5250   16.4800  -32.5380 N   0  0  0  0  0  0  0  0  0  0  0  0
  -42.7480   17.0940  -31.6220 C   0  0  0  0  0  0  0  0  0  0  0  0
  -41.5060   16.5300  -31.3940 N   0  0  0  0  0  0  0  0  0  0  0  0
  -41.1100   16.8340  -30.5140 H   0  0  0  0  0  0  0  0  0  0  0  0
  -41.4400   15.5350  -31.5580 H   0  0  0  0  0  0  0  0  0  0  0  0
  -46.7070   18.3690  -32.4240 C   0  0  0  0  0  0  0  0  0  0  0  0
  -47.5550   17.6430  -33.3260 C   0  0  0  0  0  0  0  0  0  0  0  0
  -48.8780   18.0560  -33.5790 C   0  0  0  0  0  3  0  0  0  0  0  0
  -49.4080   19.1940  -32.9540 C   0  0  0  0  0  3  0  0  0  0  0  0
  -48.6020   19.9290  -32.0730 C   0  0  0  0  0  3  0  0  0  0  0  0
  -47.2800   19.5200  -31.8200 C   0  0  0  0  0  3  0  0  0  0  0  0
  -47.1500   16.5210  -33.9910 O   0  0  0  0  0  0  0  0  0  0  0  0
  -46.2380   16.3170  -33.7810 H   0  0  0  0  0  0  0  0  0  0  0  0
  1  2  1  0
  2  3  2  0
  3  9  1  0
  4  6  2  0
  5  4  1  0
  5  1  2  0
  6  3  1  0
  7 12  1  0
  7 10  1  0
  8 10  2  0
  9 11  1  0
  9  7  2  0
 11  8  1  0
 13  5  1  0
 14 15  2  0
 14 16  1  0
 16 13  1  0
 17 16  1  0
 18 22  2  0
 18 21  1  0
 19 23  1  0
 19 14  1  0
 20 21  1  0
 20 24  1  0
 21 19  1  0
 24 25  1  0
 24 23  1  0
 26 25  1  0
 27 39  1  0
 27 18  1  0
 28 31  1  0
 28 27  1  0
 29 28  1  0
 30 29  2  0
 32 33  1  1
 32 29  1  0
 34 35  1  0
 34 32  1  0
 35 32  1  0
 39 37  1  6
 39 38  1  0
 39 36  1  0
 40  1  1  0
 41 44  2  0
 41 42  1  0
 42 46  2  0
 44 45  1  0
 45 43  2  0
 46 43  1  0
 46 40  1  0
 47 45  1  0
 48 44  1  0
 48 47  1  0
 49 50  1  0
 49 54  1  0
 49 48  1  0
 51 52  1  0
 51 50  1  0
 52 53  1  0
 53 54  1  0
 55 52  1  0
 56 55  1  0
 57 56  2  0
 58 59  2  0
 58 57  1  0
 59 60  1  0
 60 61  1  0
 60 55  2  0
 61 62  1  0
 63 61  1  0
 64 57  1  0
 64 69  1  0
 65 64  2  0
 66 65  1  0
 66 67  2  0
 67 68  1  0
 68 69  2  0
 70 71  1  0
 70 65  1  0
M  ISO  4  40 101  46 101  48 100  49 100
M  END
>  <TORSDO>  (199) 
F 15

>  <SCORE>  (199) 
-14.505

>  <name>  (199) 
198

>  <ligand_id>  (199) 
198

>  <original_smiles>  (199) 
[H]Oc1c([H])c([H])c([H])c([H])c1-c1nnc(N([H])[H])c(N2C([H])([H])C([H])([H])N(C3([H])c4c([H])c([H])c(Oc5c([H])c(-c6sc([H])nc6C([H])([H])[H])c([H])c([H])c5C([H])([H])N([H])C(=O)C5([H])N(C(=O)C([H])(N([H])C(=O)C6(F)C([H])([H])C6([H])[H])C(C([H])([H])[H])(C([H])([H])[H])C([H])([H])[H])C([H])([H])C([H])(O[H])C5([H])[H])c([H])c4C3([H])[H])C([H])([H])C2([H])[H])c1[H]

>  <smiles>  (199) 
[H]Oc1c([H])c([H])c([H])c([H])c1-c1nnc(N([H])[H])c(N2C([H])([H])C([H])([H])N(C3([H])c4c([H])c([H])c(Oc5c([H])c(-c6sc([H])nc6C([H])([H])[H])c([H])c([H])c5C([H])([H])N([H])C(=O)C5([H])N(C(=O)C([H])(N([H])C(=O)C6(F)C([H])([H])C6([H])[H])C(C([H])([H])[H])(C([H])([H])[H])C([H])([H])[H])C([H])([H])C([H])(O[H])C5([H])[H])c([H])c4C3([H])[H])C([H])([H])C2([H])[H])c1[H]

$$$$
199:0:0
     RDKit          3D

 78 86  0  0  1  0  0  0  0  0999 V2000
  -37.3500   13.4920  -23.7140 C   0  0  0  0  0  0  0  0  0  0  0  0
  -36.6600   13.4540  -22.4810 C   0  0  0  0  0  3  0  0  0  0  0  0
  -35.3740   12.8840  -22.3690 C   0  0  0  0  0  0  0  0  0  0  0  0
  -35.4630   12.3660  -24.7590 C   0  0  0  0  0  3  0  0  0  0  0  0
  -36.7610   12.9160  -24.8650 C   0  0  0  0  0  0  0  0  0  0  0  0
  -34.7720   12.3660  -23.5340 C   0  0  0  0  0  3  0  0  0  0  0  0
  -35.1420   12.3530  -19.8490 C   0  0  0  0  0  0  0  0  0  0  0  0
  -32.9820   12.7660  -19.3140 C   0  0  0  0  0  3  0  0  0  0  0  0
  -34.6850   12.7850  -21.0800 C   0  0  0  0  0  0  0  0  0  0  0  0
  -34.1610   12.3480  -18.8580 N   0  0  0  0  0  0  0  0  0  0  0  0
  -32.9920   13.2250  -21.0060 S   0  0  0  0  0  0  0  0  0  0  0  0
  -36.5110   11.8730  -19.4710 C   0  0  0  0  0  1  0  0  0  0  0  0
  -37.5400   12.8180  -26.1780 C   0  0  0  0  0  2  0  0  0  0  0  0
  -36.1900   13.6200  -28.0920 C   0  0  0  0  0  0  0  0  0  0  0  0
  -36.4770   14.8070  -27.9230 O   0  0  0  0  0  0  0  0  0  0  0  0
  -36.7030   12.6300  -27.3530 N   0  0  0  0  0  0  0  0  0  0  0  0
  -36.4670   11.6790  -27.5970 H   0  0  0  0  0  0  0  0  0  0  0  0
  -36.1440   14.3830  -31.1060 C   0  0  0  0  0  0  0  0  0  0  0  0
  -35.1440   13.2060  -29.1410 C   0  0  0  0  0  3  0  0  0  0  0  0
  -33.6820   14.4680  -30.5960 C   0  0  0  0  0  2  0  0  0  0  0  0
  -35.0780   14.0930  -30.3160 N   0  0  0  0  0  0  0  0  0  0  0  0
  -37.2620   13.8980  -30.8970 O   0  0  0  0  0  0  0  0  0  0  0  0
  -33.7490   13.2740  -28.5000 C   0  0  0  0  0  2  0  0  0  0  0  0
  -32.8210   13.6470  -29.6350 C   0  0  0  0  0  3  0  0  0  0  0  0
  -32.3770   12.4790  -30.3060 O   0  0  0  0  0  0  0  0  0  0  0  0
  -33.1420   12.0100  -30.6240 H   0  0  0  0  0  0  0  0  0  0  0  0
  -35.9700   15.3110  -32.3370 C   0  0  0  0  0  3  0  0  0  0  0  0
  -35.8600   17.3900  -30.8130 C   0  0  0  0  0  1  0  0  0  0  0  0
  -36.0290   17.6620  -33.2760 C   0  0  0  0  0  1  0  0  0  0  0  0
  -38.0120   16.8850  -31.9620 C   0  0  0  0  0  1  0  0  0  0  0  0
  -36.4780   16.7800  -32.0920 C   0  0  1  0  0  0  0  0  0  0  0  0
  -36.6960   14.6970  -33.4610 N   0  0  0  0  0  0  0  0  0  0  0  0
  -36.1560   14.1970  -34.5800 C   0  0  0  0  0  0  0  0  0  0  0  0
  -34.9500   14.2770  -34.8170 O   0  0  0  0  0  0  0  0  0  0  0  0
  -37.6870   14.5480  -33.3420 H   0  0  0  0  0  0  0  0  0  0  0  0
  -37.1210   13.5270  -35.5230 C   0  0  1  0  0  0  0  0  0  0  0  0
  -38.3760   13.3040  -34.9790 F   0  0  0  0  0  0  0  0  0  0  0  0
  -37.0590   13.8410  -36.9980 C   0  0  0  0  0  2  0  0  0  0  0  0
  -36.6110   12.4860  -36.4950 C   0  0  0  0  0  2  0  0  0  0  0  0
  -38.6470   13.9530  -23.6860 O   0  0  0  0  0  0  0  0  0  0  0  0
  -38.9000   20.5860  -25.9750 C   0  0  0  0  0  3  0  0  0  0  0  0
  -40.5310   20.0250  -23.8970 C   0  0  0  0  0  3  0  0  0  0  0  0
  -40.1780   21.1990  -25.8480 C   0  0  0  0  0  0  0  0  0  0  0  0
  -39.3900   19.2270  -24.1870 C   0  0  0  0  0  0  0  0  0  0  0  0
  -40.1450   15.6490  -23.4610 C   0  0  0  0  0  2  0  0  0  0  0  0
  -38.1130   16.1050  -24.9730 C   0  0  0  0  0  2  0  0  0  0  0  0
  -40.4200   17.1510  -23.5980 C   0  0  0  0  0  2  0  0  0  0  0  0
  -37.9080   17.2550  -23.9760 C   0  0  0  0  0  2  0  0  0  0  0  0
  -39.1360   15.0540  -24.4650 C   0  0  0  0  0  3  0  0  0  0  0  0
  -40.9300   21.0180  -24.7340 N   0  0  0  0  0  0  0  0  0  0  0  0
  -38.5320   19.5940  -25.1600 N   0  0  0  0  0  0  0  0  0  0  0  0
  -39.1790   17.9460  -23.6300 N   0  0  0  0  0  0  0  0  0  0  0  0
  -40.9240   21.7700  -27.0540 C   0  0  0  0  0  2  0  0  0  0  0  0
  -40.5110   19.7870  -28.5270 N   0  0  0  0  0  0  0  0  0  0  0  0
  -40.0150   19.2220  -29.7710 C   0  0  0  0  0  2  0  0  0  0  0  0
  -41.1630   19.2530  -30.7910 C   0  0  0  0  0  2  0  0  0  0  0  0
  -42.3180   18.5520  -30.2360 N   0  0  0  0  0  0  0  0  0  0  0  0
  -42.7850   18.8410  -28.8880 C   0  0  0  0  0  2  0  0  0  0  0  0
  -41.6190   19.0450  -27.9100 C   0  0  0  0  0  2  0  0  0  0  0  0
  -40.3790   21.1340  -28.3490 C   0  0  0  0  0  0  0  0  0  0  0  0
  -39.7590   21.8670  -29.1290 O   0  0  0  0  0  0  0  0  0  0  0  0
  -43.2340   18.0070  -31.1440 C   0  0  0  0  0  0  0  0  0  0  0  0
  -44.5340   18.5300  -31.3260 C   0  0  0  0  0  3  0  0  0  0  0  0
  -45.4100   17.8990  -32.2400 C   0  0  0  0  0  0  0  0  0  0  0  0
  -44.9750   16.8000  -32.9260 N   0  0  0  0  0  0  0  0  0  0  0  0
  -43.7490   16.2920  -32.7670 N   0  0  0  0  0  0  0  0  0  0  0  0
  -42.8940   16.8670  -31.9050 C   0  0  0  0  0  0  0  0  0  0  0  0
  -41.6550   16.2660  -31.7410 N   0  0  0  0  0  0  0  0  0  0  0  0
  -41.1790   16.6070  -30.9180 H   0  0  0  0  0  0  0  0  0  0  0  0
  -41.6420   15.2610  -31.8370 H   0  0  0  0  0  0  0  0  0  0  0  0
  -46.8240   18.3350  -32.5000 C   0  0  0  0  0  0  0  0  0  0  0  0
  -47.7350   17.6510  -33.3660 C   0  0  0  0  0  0  0  0  0  0  0  0
  -49.0550   18.1090  -33.5510 C   0  0  0  0  0  3  0  0  0  0  0  0
  -49.5200   19.2540  -32.8840 C   0  0  0  0  0  3  0  0  0  0  0  0
  -48.6450   19.9490  -32.0370 C   0  0  0  0  0  3  0  0  0  0  0  0
  -47.3280   19.4960  -31.8490 C   0  0  0  0  0  3  0  0  0  0  0  0
  -47.4000   16.5250  -34.0670 O   0  0  0  0  0  0  0  0  0  0  0  0
  -46.4880   16.2960  -33.8800 H   0  0  0  0  0  0  0  0  0  0  0  0
  1 40  1  0
  1  2  1  0
  2  3  2  0
  3  9  1  0
  4  6  2  0
  5  4  1  0
  5  1  2  0
  6  3  1  0
  7 12  1  0
  7 10  1  0
  8 10  2  0
  9 11  1  0
  9  7  2  0
 11  8  1  0
 13  5  1  0
 14 15  2  0
 14 16  1  0
 16 13  1  0
 17 16  1  0
 18 22  2  0
 18 21  1  0
 19 23  1  0
 19 14  1  0
 20 21  1  0
 20 24  1  0
 21 19  1  0
 24 25  1  0
 24 23  1  0
 26 25  1  0
 27 31  1  0
 27 18  1  0
 31 29  1  6
 31 30  1  0
 31 28  1  0
 32 35  1  0
 32 27  1  0
 33 32  1  0
 34 33  2  0
 36 37  1  1
 36 33  1  0
 38 39  1  0
 38 36  1  0
 39 36  1  0
 41 43  2  0
 41 51  1  0
 43 50  1  0
 44 42  1  0
 44 52  1  0
 46 49  1  0
 46 48  1  0
 47 45  1  0
 48 52  1  0
 49 40  1  0
 49 45  1  0
 50 42  2  0
 51 44  2  0
 52 47  1  0
 53 43  1  0
 54 60  1  0
 54 59  1  0
 55 54  1  0
 56 57  1  0
 56 55  1  0
 57 58  1  0
 58 59  1  0
 60 53  1  0
 61 60  2  0
 62 57  1  0
 63 62  1  0
 64 63  2  0
 65 66  2  0
 65 64  1  0
 66 67  1  0
 67 68  1  0
 67 62  2  0
 68 69  1  0
 70 68  1  0
 71 64  1  0
 71 76  1  0
 72 71  2  0
 73 72  1  0
 73 74  2  0
 74 75  1  0
 75 76  2  0
 77 78  1  0
 77 72  1  0
M  ISO  4  40 101  49 101  54 100  60 100
M  END
>  <TORSDO>  (200) 
F 16

>  <SCORE>  (200) 
-14.581

>  <name>  (200) 
199

>  <ligand_id>  (200) 
199

>  <original_smiles>  (200) 
[H]Oc1c([H])c([H])c([H])c([H])c1-c1nnc(N([H])[H])c(N2C([H])([H])C([H])([H])N(C(=O)C([H])([H])c3nc([H])c(N4C([H])([H])C([H])([H])C([H])(Oc5c([H])c(-c6sc([H])nc6C([H])([H])[H])c([H])c([H])c5C([H])([H])N([H])C(=O)C5([H])N(C(=O)C([H])(N([H])C(=O)C6(F)C([H])([H])C6([H])[H])C(C([H])([H])[H])(C([H])([H])[H])C([H])([H])[H])C([H])([H])C([H])(O[H])C5([H])[H])C([H])([H])C4([H])[H])nc3[H])C([H])([H])C2([H])[H])c1[H]

>  <smiles>  (200) 
[H]Oc1c([H])c([H])c([H])c([H])c1-c1nnc(N([H])[H])c(N2C([H])([H])C([H])([H])N(C(=O)C([H])([H])c3nc([H])c(N4C([H])([H])C([H])([H])C([H])(Oc5c([H])c(-c6sc([H])nc6C([H])([H])[H])c([H])c([H])c5C([H])([H])N([H])C(=O)C5([H])N(C(=O)C([H])(N([H])C(=O)C6(F)C([H])([H])C6([H])[H])C(C([H])([H])[H])(C([H])([H])[H])C([H])([H])[H])C([H])([H])C([H])(O[H])C5([H])[H])C([H])([H])C4([H])[H])nc3[H])C([H])([H])C2([H])[H])c1[H]

$$$$
