ligand
                    3D
 Structure written by MMmdl.
132138  0  0  1  0            999 V2000
   14.0071   15.7377  -14.1694 N   0  0  0  0  0  0
   14.8596   16.4024  -15.1658 C   0  0  0  0  0  0
   10.4226    8.9367  -20.3666 O   0  0  0  0  0  0
   12.7842   15.2194  -14.8138 C   0  0  2  0  0  0
   10.1748   10.9123  -16.7850 C   0  0  0  0  0  0
   10.5413    9.6148  -16.9289 C   0  0  0  0  0  0
   10.3553    9.5485  -19.3065 C   0  0  0  0  0  0
    9.9491   10.9479  -19.2009 C   0  0  0  0  0  0
    9.8364   11.6440  -18.0312 C   0  0  0  0  0  0
    9.3701   13.1067  -18.0407 C   0  0  0  0  0  0
   10.1743   10.5783  -12.5482 C   0  0  0  0  0  0
   10.0277   10.6344  -11.1580 C   0  0  0  0  0  0
    8.9647    9.8112  -10.4836 C   0  0  0  0  0  0
    7.7903    9.4955  -11.1885 C   0  0  0  0  0  0
   11.8333   16.3142  -15.3347 C   0  0  0  0  0  0
    6.7881    8.6796  -10.6556 C   0  0  0  0  0  0
    5.5956    8.3167  -11.5051 C   0  0  0  0  0  0
    3.1184    7.9646  -11.4872 C   0  0  0  0  0  0
    2.6847    6.5148  -11.2322 C   0  0  0  0  0  0
    3.3812    4.2620  -10.3587 C   0  0  1  0  0  0
    4.1569    3.2491  -11.2857 C   0  0  0  0  0  0
    5.6651    3.5874  -11.3992 C   0  0  0  0  0  0
    3.5491    3.3068  -12.7090 C   0  0  0  0  0  0
    4.0280    1.7851  -10.7940 C   0  0  0  0  0  0
    3.7686    4.1840   -8.8588 C   0  0  0  0  0  0
   11.9590   14.3488  -13.8292 C   0  0  0  0  0  0
    3.3197    3.2644   -6.5523 C   0  0  2  0  0  0
    4.7096    2.6489   -6.3154 C   0  0  0  0  0  0
    6.6009    2.4798   -4.7108 C   0  0  1  0  0  0
    7.5523    3.5789   -4.2199 C   0  0  0  0  0  0
    6.3671    1.4199   -3.6250 C   0  0  0  0  0  0
    5.1178    1.2450   -3.0150 C   0  0  0  0  0  0
    4.9556    0.3026   -2.0061 C   0  0  0  0  0  0
    6.0392   -0.4699   -1.5828 C   0  0  0  0  0  0
    5.8835   -1.3950   -0.4245 C   0  0  0  0  0  0
    6.7434   -1.6851    0.6439 C   0  0  0  0  0  0
   14.7629   14.6561  -13.5096 C   0  0  1  0  0  0
    8.1446   -1.1683    0.8886 C   0  0  0  0  0  0
    5.0532   -2.9005    1.2781 C   0  0  0  0  0  0
    7.2760   -0.3272   -2.2154 C   0  0  0  0  0  0
    7.4363    0.6062   -3.2347 C   0  0  0  0  0  0
    2.2239    2.3538   -5.9861 C   0  0  0  0  0  0
    1.0820    2.5198   -6.9732 C   0  0  2  0  0  0
    1.7959    2.6940   -8.3118 C   0  0  0  0  0  0
    6.9413    8.1971   -9.3490 C   0  0  0  0  0  0
    8.0810    8.5175   -8.6156 C   0  0  0  0  0  0
    9.0892    9.3052   -9.1748 C   0  0  0  0  0  0
   16.0067   15.1338  -12.7293 C   0  0  0  0  0  0
   10.8912   11.4910  -10.4658 C   0  0  0  0  0  0
   11.8104   12.2977  -11.1405 C   0  0  0  0  0  0
   13.8362   13.8749  -12.5379 C   0  0  0  0  0  0
   11.8920   12.3076  -12.5448 C   0  0  0  0  0  0
   11.0646   11.4040  -13.2433 C   0  0  0  0  0  0
   10.0518   11.4794  -15.4552 C   0  0  0  0  0  0
    9.3034   13.6001  -19.2796 F   0  0  0  0  0  0
    8.1548   13.1931  -17.5033 F   0  0  0  0  0  0
   10.2209   13.8615  -17.3451 F   0  0  0  0  0  0
   10.1962    9.5406   -8.4336 F   0  0  0  0  0  0
   12.6960   13.2357  -13.2157 N   0  0  0  0  0  0
   11.1094   11.2543  -14.6406 N   0  0  0  0  0  0
   10.6400    8.9582  -18.1189 N   0  0  0  0  0  0
    4.4121    8.2772  -10.8728 N   0  0  0  0  0  0
    3.6010    5.6562  -10.7591 N   0  0  0  0  0  0
    3.0136    3.4549   -7.9903 N   0  0  0  0  0  0
    5.3723    3.0852   -5.2359 N   0  0  0  0  0  0
    6.2612   -2.4990    1.5658 N   0  0  0  0  0  0
    9.0338   12.0747  -15.0926 O   0  0  0  0  0  0
    5.1201    1.7755   -7.0790 O   0  0  0  0  0  0
    0.2729    3.6324   -6.6560 O   0  0  0  0  0  0
    4.7721    4.8081   -8.5003 O   0  0  0  0  0  0
    1.5147    6.2020  -11.4406 O   0  0  0  0  0  0
    5.7264    8.1020  -12.7118 O   0  0  0  0  0  0
    4.4195   -2.3230   -0.2192 S   0  0  0  0  0  0
   15.7268   16.8731  -14.7068 H   0  0  0  0  0  0
   15.2213   15.6927  -15.9101 H   0  0  0  0  0  0
   14.3487   17.2080  -15.6885 H   0  0  0  0  0  0
   13.0772   14.5879  -15.6535 H   0  0  0  0  0  0
   10.7840    8.9449  -16.1135 H   0  0  0  0  0  0
    9.7180   11.4361  -20.1351 H   0  0  0  0  0  0
    9.5761    9.8827  -13.1180 H   0  0  0  0  0  0
    7.6511    9.8806  -12.1890 H   0  0  0  0  0  0
   11.0161   15.8813  -15.9102 H   0  0  0  0  0  0
   11.4017   16.8717  -14.5092 H   0  0  0  0  0  0
   12.3084   17.0581  -15.9633 H   0  0  0  0  0  0
    2.3714    8.6289  -11.0542 H   0  0  0  0  0  0
    3.1311    8.1484  -12.5624 H   0  0  0  0  0  0
    2.3187    4.0510  -10.4570 H   0  0  0  0  0  0
    6.1593    2.9045  -12.0892 H   0  0  0  0  0  0
    5.8380    4.5964  -11.7759 H   0  0  0  0  0  0
    6.1758    3.5017  -10.4401 H   0  0  0  0  0  0
    4.0318    2.6016  -13.3874 H   0  0  0  0  0  0
    2.4877    3.0593  -12.6891 H   0  0  0  0  0  0
    3.6456    4.2965  -13.1572 H   0  0  0  0  0  0
    4.5053    1.0849  -11.4809 H   0  0  0  0  0  0
    4.4961    1.6354   -9.8211 H   0  0  0  0  0  0
    2.9856    1.4857  -10.7086 H   0  0  0  0  0  0
   11.0945   13.9597  -14.3671 H   0  0  0  0  0  0
   11.5573   14.9794  -13.0369 H   0  0  0  0  0  0
    3.2627    4.2251   -6.0381 H   0  0  0  0  0  0
    7.1170    1.9673   -5.5261 H   0  0  0  0  0  0
    7.6783    4.3521   -4.9771 H   0  0  0  0  0  0
    7.1843    4.0529   -3.3110 H   0  0  0  0  0  0
    8.5420    3.1771   -3.9993 H   0  0  0  0  0  0
    4.2657    1.8445   -3.2973 H   0  0  0  0  0  0
    3.9883    0.2019   -1.5353 H   0  0  0  0  0  0
   15.0963   13.9602  -14.2813 H   0  0  0  0  0  0
    8.4454   -1.2326    1.9344 H   0  0  0  0  0  0
    8.8793   -1.7351    0.3168 H   0  0  0  0  0  0
    8.2451   -0.1236    0.5939 H   0  0  0  0  0  0
    4.4880   -3.5785    1.8994 H   0  0  0  0  0  0
    8.1230   -0.9231   -1.9102 H   0  0  0  0  0  0
    8.4050    0.7167   -3.7010 H   0  0  0  0  0  0
    1.9792    2.6587   -4.9690 H   0  0  0  0  0  0
    2.5562    1.3135   -5.9657 H   0  0  0  0  0  0
    0.4592    1.6260   -6.9834 H   0  0  0  0  0  0
    1.1415    3.1671   -9.0421 H   0  0  0  0  0  0
    2.0770    1.7162   -8.7023 H   0  0  0  0  0  0
    6.1944    7.5571   -8.9004 H   0  0  0  0  0  0
    8.1946    8.1350   -7.6113 H   0  0  0  0  0  0
   16.5037   14.2979  -12.2508 H   0  0  0  0  0  0
   16.7561   15.5949  -13.3696 H   0  0  0  0  0  0
   15.7406   15.8519  -11.9525 H   0  0  0  0  0  0
   10.8371   11.5798   -9.3921 H   0  0  0  0  0  0
   12.4168   12.9655  -10.5478 H   0  0  0  0  0  0
   13.4831   14.5463  -11.7519 H   0  0  0  0  0  0
   14.4167   13.0959  -12.0429 H   0  0  0  0  0  0
   12.0098   11.0617  -15.0561 H   0  0  0  0  0  0
   10.8958    7.9764  -18.1543 H   0  0  0  0  0  0
    4.3756    8.5867   -9.9101 H   0  0  0  0  0  0
    4.5387    5.9946  -10.5994 H   0  0  0  0  0  0
    4.9295    3.7794   -4.6491 H   0  0  0  0  0  0
   -0.3775    3.7397   -7.3596 H   0  0  0  0  0  0
  1  2  1  0  0  0
  1  4  1  0  0  0
  1 37  1  0  0  0
  2 74  1  0  0  0
  2 75  1  0  0  0
  2 76  1  0  0  0
  3  7  2  0  0  0
  4 15  1  0  0  0
  4 26  1  0  0  0
  4 77  1  0  0  0
  5  6  2  0  0  0
  5  9  1  0  0  0
  5 54  1  0  0  0
  6 61  1  0  0  0
  6 78  1  0  0  0
  7  8  1  0  0  0
  7 61  1  0  0  0
  8  9  2  0  0  0
  8 79  1  0  0  0
  9 10  1  0  0  0
 10 55  1  0  0  0
 10 56  1  0  0  0
 10 57  1  0  0  0
 11 12  1  0  0  0
 11 53  2  0  0  0
 11 80  1  0  0  0
 12 13  1  0  0  0
 12 49  2  0  0  0
 13 14  1  0  0  0
 13 47  2  0  0  0
 14 16  2  0  0  0
 14 81  1  0  0  0
 15 82  1  0  0  0
 15 83  1  0  0  0
 15 84  1  0  0  0
 16 17  1  0  0  0
 16 45  1  0  0  0
 17 62  1  0  0  0
 17 72  2  0  0  0
 18 19  1  0  0  0
 18 62  1  0  0  0
 18 85  1  0  0  0
 18 86  1  0  0  0
 19 63  1  0  0  0
 19 71  2  0  0  0
 20 21  1  0  0  0
 20 25  1  0  0  0
 20 63  1  0  0  0
 20 87  1  0  0  0
 21 22  1  0  0  0
 21 23  1  0  0  0
 21 24  1  0  0  0
 22 88  1  0  0  0
 22 89  1  0  0  0
 22 90  1  0  0  0
 23 91  1  0  0  0
 23 92  1  0  0  0
 23 93  1  0  0  0
 24 94  1  0  0  0
 24 95  1  0  0  0
 24 96  1  0  0  0
 25 64  1  0  0  0
 25 70  2  0  0  0
 26 59  1  0  0  0
 26 97  1  0  0  0
 26 98  1  0  0  0
 27 28  1  0  0  0
 27 42  1  0  0  0
 27 64  1  0  0  0
 27 99  1  0  0  0
 28 65  1  0  0  0
 28 68  2  0  0  0
 29 30  1  0  0  0
 29 31  1  0  0  0
 29 65  1  0  0  0
 29100  1  0  0  0
 30101  1  0  0  0
 30102  1  0  0  0
 30103  1  0  0  0
 31 32  1  0  0  0
 31 41  2  0  0  0
 32 33  2  0  0  0
 32104  1  0  0  0
 33 34  1  0  0  0
 33105  1  0  0  0
 34 35  1  0  0  0
 34 40  2  0  0  0
 35 36  2  0  0  0
 35 73  1  0  0  0
 36 38  1  0  0  0
 36 66  1  0  0  0
 37 48  1  0  0  0
 37 51  1  0  0  0
 37106  1  0  0  0
 38107  1  0  0  0
 38108  1  0  0  0
 38109  1  0  0  0
 39 66  2  0  0  0
 39 73  1  0  0  0
 39110  1  0  0  0
 40 41  1  0  0  0
 40111  1  0  0  0
 41112  1  0  0  0
 42 43  1  0  0  0
 42113  1  0  0  0
 42114  1  0  0  0
 43 44  1  0  0  0
 43 69  1  0  0  0
 43115  1  0  0  0
 44 64  1  0  0  0
 44116  1  0  0  0
 44117  1  0  0  0
 45 46  2  0  0  0
 45118  1  0  0  0
 46 47  1  0  0  0
 46119  1  0  0  0
 47 58  1  0  0  0
 48120  1  0  0  0
 48121  1  0  0  0
 48122  1  0  0  0
 49 50  1  0  0  0
 49123  1  0  0  0
 50 52  2  0  0  0
 50124  1  0  0  0
 51 59  1  0  0  0
 51125  1  0  0  0
 51126  1  0  0  0
 52 53  1  0  0  0
 52 59  1  0  0  0
 53 60  1  0  0  0
 54 60  1  0  0  0
 54 67  2  0  0  0
 60127  1  0  0  0
 61128  1  0  0  0
 62129  1  0  0  0
 63130  1  0  0  0
 65131  1  0  0  0
 69132  1  0  0  0
M  END
> <s_m_entry_id>
7

> <s_m_entry_name>
7jtp.1_mol3

> <s_m_subgroup_title>
7JTP - minimized_split_by_molecule

> <s_m_subgroupid>
7JTP - minimized_split_by_molecule

> <b_m_subgroup_collapsed>
0

$$$$
