e3_ligand
                    3D
 Structure written by MMmdl.
 34 36  0  0  1  0            999 V2000
    2.6847    6.5148  -11.2322 C   0  0  0  0  0  0
    3.3812    4.2620  -10.3587 C   0  0  1  0  0  0
    4.1569    3.2491  -11.2857 C   0  0  0  0  0  0
    5.6651    3.5874  -11.3992 C   0  0  0  0  0  0
    3.5491    3.3068  -12.7090 C   0  0  0  0  0  0
    4.0280    1.7851  -10.7940 C   0  0  0  0  0  0
    3.7686    4.1840   -8.8588 C   0  0  0  0  0  0
    3.3197    3.2644   -6.5523 C   0  0  2  0  0  0
    4.7096    2.6489   -6.3154 C   0  0  0  0  0  0
    6.6009    2.4798   -4.7108 C   0  0  1  0  0  0
    7.5523    3.5789   -4.2199 C   0  0  0  0  0  0
    6.3671    1.4199   -3.6250 C   0  0  0  0  0  0
    5.1178    1.2450   -3.0150 C   0  0  0  0  0  0
    4.9556    0.3026   -2.0061 C   0  0  0  0  0  0
    6.0392   -0.4699   -1.5828 C   0  0  0  0  0  0
    5.8835   -1.3950   -0.4245 C   0  0  0  0  0  0
    6.7434   -1.6851    0.6439 C   0  0  0  0  0  0
    8.1446   -1.1683    0.8886 C   0  0  0  0  0  0
    5.0532   -2.9005    1.2781 C   0  0  0  0  0  0
    7.2760   -0.3272   -2.2154 C   0  0  0  0  0  0
    7.4363    0.6062   -3.2347 C   0  0  0  0  0  0
    2.2239    2.3538   -5.9861 C   0  0  0  0  0  0
    1.0820    2.5198   -6.9732 C   0  0  2  0  0  0
    1.7959    2.6940   -8.3118 C   0  0  0  0  0  0
    3.6010    5.6562  -10.7591 N   0  0  0  0  0  0
    3.0136    3.4549   -7.9903 N   0  0  0  0  0  0
    5.3723    3.0852   -5.2359 N   0  0  0  0  0  0
    6.2612   -2.4990    1.5658 N   0  0  0  0  0  0
    5.1201    1.7755   -7.0790 O   0  0  0  0  0  0
    0.2729    3.6324   -6.6560 O   0  0  0  0  0  0
    4.7721    4.8081   -8.5003 O   0  0  0  0  0  0
    1.5147    6.2020  -11.4406 O   0  0  0  0  0  0
    4.4195   -2.3230   -0.2192 S   0  0  0  0  0  0
    2.9623    7.5358  -11.4487 *   0  0  0  0  0  0
  1 25  1  0  0  0
  1 32  2  0  0  0
  1 34  1  0  0  0
  2  3  1  0  0  0
  2  7  1  0  0  0
  2 25  1  0  0  0
  3  4  1  0  0  0
  3  5  1  0  0  0
  3  6  1  0  0  0
  7 26  1  0  0  0
  7 31  2  0  0  0
  8  9  1  0  0  0
  8 22  1  0  0  0
  8 26  1  0  0  0
  9 27  1  0  0  0
  9 29  2  0  0  0
 10 11  1  0  0  0
 10 12  1  0  0  0
 10 27  1  0  0  0
 12 13  1  0  0  0
 12 21  2  0  0  0
 13 14  2  0  0  0
 14 15  1  0  0  0
 15 16  1  0  0  0
 15 20  2  0  0  0
 16 17  2  0  0  0
 16 33  1  0  0  0
 17 18  1  0  0  0
 17 28  1  0  0  0
 19 28  2  0  0  0
 19 33  1  0  0  0
 20 21  1  0  0  0
 22 23  1  0  0  0
 23 24  1  0  0  0
 23 30  1  0  0  0
 24 26  1  0  0  0
M  ISO  1   1 101
M  END
> <s_m_entry_id>
12

> <s_m_entry_name>
7jtp.1_mol3

> <s_m_subgroup_title>
7JTP - minimized_split_by_molecule

> <s_m_subgroupid>
7JTP - minimized_split_by_molecule

> <b_m_subgroup_collapsed>
0

$$$$
