ligand
                    3D
 Structure written by MMmdl.
172180  0  0  1  0            999 V2000
   31.8972   35.1807   12.8005 C   0  0  0  0  0  0
   32.2772   38.5610   14.6622 C   0  0  0  0  0  0
   33.3027   39.5040   14.5562 C   0  0  0  0  0  0
   33.2576   40.6734   15.3111 C   0  0  0  0  0  0
   31.1400   39.9842   16.2462 C   0  0  0  0  0  0
   28.5646   43.2313   17.5498 C   0  0  1  0  0  0
   27.7262   42.1961   16.7949 C   0  0  0  0  0  0
   28.2523   45.7035   17.9636 C   0  0  0  0  0  0
   27.3517   46.9620   17.8804 C   0  0  2  0  0  0
   27.6241   47.2129   15.3201 C   0  0  0  0  0  0
   30.2198   43.9771   15.9680 O   0  0  0  0  0  0
   29.9923   43.3041   16.9746 C   0  0  0  0  0  0
   30.8960   42.5401   17.6015 N   0  0  0  0  0  0
   32.1955   42.1776   17.0385 C   0  0  0  0  0  0
   32.1879   40.9107   16.1782 C   0  0  0  0  0  0
   31.1840   38.8196   15.4908 C   0  0  0  0  0  0
   32.3648   37.2575   13.9473 C   0  0  0  0  0  0
   33.4452   36.3869   13.7428 C   0  0  0  0  0  0
   34.8866   36.5384   14.1796 C   0  0  0  0  0  0
   33.1614   35.2635   13.1109 N   0  0  0  0  0  0
   30.9413   36.5482   13.2282 S   0  0  0  0  0  0
   26.3157   42.7397   16.9323 C   0  0  1  0  0  0
   25.7171   42.3474   18.1502 O   0  0  0  0  0  0
   26.5089   44.2530   16.8530 C   0  0  0  0  0  0
   27.8160   44.5083   17.4799 N   0  0  0  0  0  0
   29.3573   45.8428   18.4962 O   0  0  0  0  0  0
   27.7251   47.9257   16.6929 C   0  0  0  0  0  0
   29.1604   48.4931   16.8240 C   0  0  0  0  0  0
   26.7200   49.1022   16.6693 C   0  0  0  0  0  0
   27.4369   47.6142   19.1986 N   0  0  0  0  0  0
   26.4651   47.6551   20.1259 C   0  0  0  0  0  0
   25.3239   47.2446   19.9321 O   0  0  0  0  0  0
   26.8375   48.1871   21.5131 C   0  0  0  0  0  0
   26.1678   49.5204   21.8597 C   0  0  0  0  0  0
   26.6745   50.5236   20.9943 O   0  0  0  0  0  0
   26.1062   51.8127   21.1623 C   0  0  0  0  0  0
   26.5493   52.5344   22.4512 C   0  0  0  0  0  0
   27.9437   52.8223   22.4519 O   0  0  0  0  0  0
   28.7616   51.8457   23.0852 C   0  0  0  0  0  0
   30.2174   52.3381   23.1099 C   0  0  0  0  0  0
   30.3788   53.5815   23.7800 O   0  0  0  0  0  0
   30.2305   53.5457   25.1938 C   0  0  0  0  0  0
   30.9895   54.7425   25.7751 C   0  0  0  0  0  0
   32.3783   54.5423   25.5465 O   0  0  0  0  0  0
   33.1726   55.6983   25.7651 C   0  0  0  0  0  0
   34.6579   55.3297   25.6494 C   0  0  0  0  0  0
   34.9534   54.9133   24.3234 O   0  0  0  0  0  0
   36.3306   54.6349   24.0836 C   0  0  0  0  0  0
   36.7201   55.2580   22.7389 C   0  0  0  0  0  0
   36.5968   56.6768   22.8559 O   0  0  0  0  0  0
   36.1080   57.3743   21.7141 C   0  0  0  0  0  0
   34.6836   57.1132   21.4260 C   0  0  0  0  0  0
   33.5204   56.8793   21.1472 C   0  0  0  0  0  0
   32.1343   56.6515   20.7684 C   0  0  0  0  0  0
   31.5079   55.4407   21.0626 C   0  0  0  0  0  0
   30.1824   55.2422   20.6826 C   0  0  0  0  0  0
   31.4358   57.6595   20.1088 C   0  0  0  0  0  0
   30.1125   57.4611   19.7348 C   0  0  0  0  0  0
   29.4798   56.2520   20.0064 C   0  0  0  0  0  0
   28.1773   56.1417   19.5691 O   0  0  0  0  0  0
   27.4462   54.9602   19.8656 C   0  0  0  0  0  0
   26.0381   55.0742   19.2704 C   0  0  0  0  0  0
   25.2607   56.2441   19.8801 C   0  0  0  0  0  0
   23.8133   56.2509   19.4608 C   0  0  0  0  0  0
   22.6468   55.8334   20.1225 C   0  0  0  0  0  0
   22.5694   55.2814   21.4824 C   0  0  0  0  0  0
   23.5234   54.5740   21.8790 O   0  0  0  0  0  0
   21.5350   55.5238   22.1452 O   0  5  0  0  0  0
   23.3436   56.8655   17.9043 S   0  0  0  0  0  0
   21.6893   56.4585   18.2536 C   0  0  0  0  0  0
   21.5179   55.9324   19.4368 N   0  0  0  0  0  0
   20.6939   56.6824   17.3360 N   0  0  0  0  0  0
   19.3218   56.9420   17.7773 C   0  0  0  0  0  0
   18.2815   56.5386   16.7161 C   0  0  0  0  0  0
   18.6044   57.0851   15.3316 C   0  0  0  0  0  0
   19.9135   57.5033   15.0149 C   0  0  0  0  0  0
   20.9881   57.4239   16.1056 C   0  0  0  0  0  0
   17.6001   57.1658   14.3673 C   0  0  0  0  0  0
   17.8676   57.6521   13.0975 C   0  0  0  0  0  0
   19.1531   58.0638   12.7773 C   0  0  0  0  0  0
   20.1937   58.0166   13.7180 C   0  0  0  0  0  0
   21.5673   58.5712   13.3499 C   0  0  0  0  0  0
   22.3255   58.9796   14.2283 O   0  0  0  0  0  0
   21.8854   58.5958   12.0344 N   0  0  0  0  0  0
   23.0105   59.1598   11.4433 C   0  0  0  0  0  0
   23.1144   59.1959   10.1441 N   0  0  0  0  0  0
   24.2927   59.7544    9.7530 C   0  0  0  0  0  0
   25.1536   60.1555   10.8067 C   0  0  0  0  0  0
   24.3585   59.8618   12.3350 S   0  0  0  0  0  0
   24.7021   59.9269    8.4236 C   0  0  0  0  0  0
   25.9703   60.4575    8.1774 C   0  0  0  0  0  0
   26.8187   60.8191    9.2231 C   0  0  0  0  0  0
   26.4244   60.6827   10.5524 C   0  0  0  0  0  0
   31.4635   34.3363   12.2870 H   0  0  0  0  0  0
   34.1463   39.3248   13.9060 H   0  0  0  0  0  0
   34.0683   41.3838   15.2360 H   0  0  0  0  0  0
   30.2929   40.1414   16.8963 H   0  0  0  0  0  0
   28.6219   42.9124   18.5917 H   0  0  0  0  0  0
   27.8709   41.2058   17.2257 H   0  0  0  0  0  0
   28.0161   42.1574   15.7450 H   0  0  0  0  0  0
   26.3175   46.6626   17.7274 H   0  0  0  0  0  0
   27.8039   47.9040   14.4951 H   0  0  0  0  0  0
   28.3513   46.4067   15.2189 H   0  0  0  0  0  0
   26.6369   46.7816   15.1682 H   0  0  0  0  0  0
   30.5845   41.9933   18.3933 H   0  0  0  0  0  0
   32.8872   42.0165   17.8660 H   0  0  0  0  0  0
   32.6057   43.0029   16.4516 H   0  0  0  0  0  0
   30.3787   38.1050   15.5831 H   0  0  0  0  0  0
   35.2828   35.6219   14.6183 H   0  0  0  0  0  0
   35.5333   36.7998   13.3416 H   0  0  0  0  0  0
   35.0112   37.3137   14.9348 H   0  0  0  0  0  0
   25.6949   42.3906   16.1076 H   0  0  0  0  0  0
   24.8611   42.7854   18.2203 H   0  0  0  0  0  0
   25.6741   44.7693   17.3221 H   0  0  0  0  0  0
   26.5470   44.5659   15.8092 H   0  0  0  0  0  0
   29.3135   49.3239   16.1385 H   0  0  0  0  0  0
   29.3717   48.8580   17.8262 H   0  0  0  0  0  0
   29.9197   47.7445   16.5939 H   0  0  0  0  0  0
   26.9702   49.8389   15.9051 H   0  0  0  0  0  0
   25.7125   48.7457   16.4562 H   0  0  0  0  0  0
   26.6780   49.6269   17.6232 H   0  0  0  0  0  0
   28.3556   47.9546   19.4407 H   0  0  0  0  0  0
   27.9209   48.2818   21.6052 H   0  0  0  0  0  0
   26.5264   47.4479   22.2470 H   0  0  0  0  0  0
   26.3821   49.7655   22.9004 H   0  0  0  0  0  0
   25.0841   49.4401   21.7594 H   0  0  0  0  0  0
   25.0182   51.7676   21.0977 H   0  0  0  0  0  0
   26.4401   52.3835   20.3010 H   0  0  0  0  0  0
   26.2534   51.9811   23.3420 H   0  0  0  0  0  0
   26.0240   53.4878   22.5107 H   0  0  0  0  0  0
   28.7079   50.8986   22.5484 H   0  0  0  0  0  0
   28.4153   51.6629   24.1036 H   0  0  0  0  0  0
   30.5551   52.5027   22.0899 H   0  0  0  0  0  0
   30.8796   51.5803   23.5319 H   0  0  0  0  0  0
   30.6295   52.6220   25.6182 H   0  0  0  0  0  0
   29.1724   53.5987   25.4526 H   0  0  0  0  0  0
   30.7992   54.8339   26.8453 H   0  0  0  0  0  0
   30.6424   55.6606   25.2977 H   0  0  0  0  0  0
   32.9677   56.1111   26.7539 H   0  0  0  0  0  0
   32.9225   56.4642   25.0295 H   0  0  0  0  0  0
   34.9054   54.5349   26.3551 H   0  0  0  0  0  0
   35.2670   56.1987   25.9013 H   0  0  0  0  0  0
   36.4755   53.5543   24.0646 H   0  0  0  0  0  0
   36.9844   55.0312   24.8643 H   0  0  0  0  0  0
   36.0896   54.8385   21.9527 H   0  0  0  0  0  0
   37.7513   55.0125   22.4837 H   0  0  0  0  0  0
   36.6983   57.1344   20.8283 H   0  0  0  0  0  0
   36.2137   58.4453   21.8876 H   0  0  0  0  0  0
   32.0381   54.6518   21.5783 H   0  0  0  0  0  0
   29.7184   54.2962   20.9107 H   0  0  0  0  0  0
   31.9142   58.5962   19.8829 H   0  0  0  0  0  0
   29.5734   58.2463   19.2258 H   0  0  0  0  0  0
   27.3826   54.8313   20.9459 H   0  0  0  0  0  0
   27.9499   54.0883   19.4552 H   0  0  0  0  0  0
   25.4872   54.1509   19.4424 H   0  0  0  0  0  0
   26.1071   55.1898   18.1887 H   0  0  0  0  0  0
   25.7407   57.1658   19.5631 H   0  0  0  0  0  0
   25.3379   56.2070   20.9663 H   0  0  0  0  0  0
   19.2379   57.9909   18.0514 H   0  0  0  0  0  0
   19.1004   56.3779   18.6839 H   0  0  0  0  0  0
   17.2966   56.8835   17.0351 H   0  0  0  0  0  0
   18.2253   55.4511   16.6516 H   0  0  0  0  0  0
   21.8653   56.9611   15.6527 H   0  0  0  0  0  0
   21.2739   58.4347   16.3920 H   0  0  0  0  0  0
   16.5947   56.8553   14.6088 H   0  0  0  0  0  0
   17.0765   57.7182   12.3649 H   0  0  0  0  0  0
   19.3149   58.4379   11.7806 H   0  0  0  0  0  0
   21.2252   58.1853   11.3874 H   0  0  0  0  0  0
   24.0627   59.6357    7.6077 H   0  0  0  0  0  0
   26.3033   60.5825    7.1574 H   0  0  0  0  0  0
   27.7975   61.2187    9.0041 H   0  0  0  0  0  0
   27.0792   60.9720   11.3595 H   0  0  0  0  0  0
  1 20  2  0  0  0
  1 21  1  0  0  0
  1 94  1  0  0  0
  2 16  1  0  0  0
  2 17  1  0  0  0
  2  3  2  0  0  0
  3  4  1  0  0  0
  3 95  1  0  0  0
  4 15  2  0  0  0
  4 96  1  0  0  0
  5 15  1  0  0  0
  5 16  2  0  0  0
  5 97  1  0  0  0
  6 12  1  0  0  0
  6  7  1  0  0  0
  6 25  1  0  0  0
  6 98  1  0  0  0
  7 22  1  0  0  0
  7 99  1  0  0  0
  7100  1  0  0  0
  8  9  1  0  0  0
  8 25  1  0  0  0
  8 26  2  0  0  0
  9 27  1  0  0  0
  9 30  1  0  0  0
  9101  1  0  0  0
 10 27  1  0  0  0
 10102  1  0  0  0
 10103  1  0  0  0
 10104  1  0  0  0
 11 12  2  0  0  0
 12 13  1  0  0  0
 13 14  1  0  0  0
 13105  1  0  0  0
 14 15  1  0  0  0
 14106  1  0  0  0
 14107  1  0  0  0
 16108  1  0  0  0
 17 18  2  0  0  0
 17 21  1  0  0  0
 18 19  1  0  0  0
 18 20  1  0  0  0
 19109  1  0  0  0
 19110  1  0  0  0
 19111  1  0  0  0
 22 24  1  0  0  0
 22 23  1  0  0  0
 22112  1  0  0  0
 23113  1  0  0  0
 24 25  1  0  0  0
 24114  1  0  0  0
 24115  1  0  0  0
 27 28  1  0  0  0
 27 29  1  0  0  0
 28116  1  0  0  0
 28117  1  0  0  0
 28118  1  0  0  0
 29119  1  0  0  0
 29120  1  0  0  0
 29121  1  0  0  0
 30 31  1  0  0  0
 30122  1  0  0  0
 31 32  2  0  0  0
 31 33  1  0  0  0
 33 34  1  0  0  0
 33123  1  0  0  0
 33124  1  0  0  0
 34 35  1  0  0  0
 34125  1  0  0  0
 34126  1  0  0  0
 35 36  1  0  0  0
 36 37  1  0  0  0
 36127  1  0  0  0
 36128  1  0  0  0
 37 38  1  0  0  0
 37129  1  0  0  0
 37130  1  0  0  0
 38 39  1  0  0  0
 39 40  1  0  0  0
 39131  1  0  0  0
 39132  1  0  0  0
 40 41  1  0  0  0
 40133  1  0  0  0
 40134  1  0  0  0
 41 42  1  0  0  0
 42 43  1  0  0  0
 42135  1  0  0  0
 42136  1  0  0  0
 43 44  1  0  0  0
 43137  1  0  0  0
 43138  1  0  0  0
 44 45  1  0  0  0
 45 46  1  0  0  0
 45139  1  0  0  0
 45140  1  0  0  0
 46 47  1  0  0  0
 46141  1  0  0  0
 46142  1  0  0  0
 47 48  1  0  0  0
 48 49  1  0  0  0
 48143  1  0  0  0
 48144  1  0  0  0
 49 50  1  0  0  0
 49145  1  0  0  0
 49146  1  0  0  0
 50 51  1  0  0  0
 51 52  1  0  0  0
 51147  1  0  0  0
 51148  1  0  0  0
 52 53  3  0  0  0
 53 54  1  0  0  0
 54 57  1  0  0  0
 54 55  2  0  0  0
 55 56  1  0  0  0
 55149  1  0  0  0
 56 59  2  0  0  0
 56150  1  0  0  0
 57 58  2  0  0  0
 57151  1  0  0  0
 58 59  1  0  0  0
 58152  1  0  0  0
 59 60  1  0  0  0
 60 61  1  0  0  0
 61 62  1  0  0  0
 61153  1  0  0  0
 61154  1  0  0  0
 62 63  1  0  0  0
 62155  1  0  0  0
 62156  1  0  0  0
 63 64  1  0  0  0
 63157  1  0  0  0
 63158  1  0  0  0
 64 65  2  0  0  0
 64 69  1  0  0  0
 65 66  1  0  0  0
 65 71  1  0  0  0
 66 67  2  0  0  0
 66 68  1  0  0  0
 69 70  1  0  0  0
 70 71  2  0  0  0
 70 72  1  0  0  0
 72 77  1  0  0  0
 72 73  1  0  0  0
 73 74  1  0  0  0
 73159  1  0  0  0
 73160  1  0  0  0
 74 75  1  0  0  0
 74161  1  0  0  0
 74162  1  0  0  0
 75 76  1  0  0  0
 75 78  2  0  0  0
 76 81  2  0  0  0
 76 77  1  0  0  0
 77163  1  0  0  0
 77164  1  0  0  0
 78 79  1  0  0  0
 78165  1  0  0  0
 79 80  2  0  0  0
 79166  1  0  0  0
 80 81  1  0  0  0
 80167  1  0  0  0
 81 82  1  0  0  0
 82 83  2  0  0  0
 82 84  1  0  0  0
 84 85  1  0  0  0
 84168  1  0  0  0
 85 86  2  0  0  0
 85 89  1  0  0  0
 86 87  1  0  0  0
 87 88  2  0  0  0
 87 90  1  0  0  0
 88 89  1  0  0  0
 88 93  1  0  0  0
 90 91  2  0  0  0
 90169  1  0  0  0
 91 92  1  0  0  0
 91170  1  0  0  0
 92 93  2  0  0  0
 92171  1  0  0  0
 93172  1  0  0  0
M  CHG  1  68  -1
M  END
> <s_m_entry_id>
8

> <s_m_entry_name>
6zhc.1_mol2

> <s_m_subgroup_title>
6zhc - minimized_split_by_molecule

> <s_m_subgroupid>
6zhc - minimized_split_by_molecule

> <b_m_subgroup_collapsed>
0

$$$$
