e3_ligand
                    3D
 Structure written by MMmdl.
 33 35  0  0  1  0            999 V2000
   31.8972   35.1807   12.8005 C   0  0  0  0  0  0
   32.2772   38.5610   14.6622 C   0  0  0  0  0  0
   33.3027   39.5040   14.5562 C   0  0  0  0  0  0
   33.2576   40.6734   15.3111 C   0  0  0  0  0  0
   31.1400   39.9842   16.2462 C   0  0  0  0  0  0
   28.5646   43.2313   17.5498 C   0  0  1  0  0  0
   27.7262   42.1961   16.7949 C   0  0  0  0  0  0
   28.2523   45.7035   17.9636 C   0  0  0  0  0  0
   27.3517   46.9620   17.8804 C   0  0  2  0  0  0
   27.6241   47.2129   15.3201 C   0  0  0  0  0  0
   30.2198   43.9771   15.9680 O   0  0  0  0  0  0
   29.9923   43.3041   16.9746 C   0  0  0  0  0  0
   30.8960   42.5401   17.6015 N   0  0  0  0  0  0
   32.1955   42.1776   17.0385 C   0  0  0  0  0  0
   32.1879   40.9107   16.1782 C   0  0  0  0  0  0
   31.1840   38.8196   15.4908 C   0  0  0  0  0  0
   32.3648   37.2575   13.9473 C   0  0  0  0  0  0
   33.4452   36.3869   13.7428 C   0  0  0  0  0  0
   34.8866   36.5384   14.1796 C   0  0  0  0  0  0
   33.1614   35.2635   13.1109 N   0  0  0  0  0  0
   30.9413   36.5482   13.2282 S   0  0  0  0  0  0
   26.3157   42.7397   16.9323 C   0  0  1  0  0  0
   25.7171   42.3474   18.1502 O   0  0  0  0  0  0
   26.5089   44.2530   16.8530 C   0  0  0  0  0  0
   27.8160   44.5083   17.4799 N   0  0  0  0  0  0
   29.3573   45.8428   18.4962 O   0  0  0  0  0  0
   27.7251   47.9257   16.6929 C   0  0  0  0  0  0
   29.1604   48.4931   16.8240 C   0  0  0  0  0  0
   26.7200   49.1022   16.6693 C   0  0  0  0  0  0
   27.4369   47.6142   19.1986 N   0  0  0  0  0  0
   26.4651   47.6551   20.1259 C   0  0  0  0  0  0
   25.3239   47.2446   19.9321 O   0  0  0  0  0  0
   26.6687   48.0656   21.1038 *   0  0  0  0  0  0
  1 20  2  0  0  0
  1 21  1  0  0  0
  2 16  1  0  0  0
  2 17  1  0  0  0
  2  3  2  0  0  0
  3  4  1  0  0  0
  4 15  2  0  0  0
  5 15  1  0  0  0
  5 16  2  0  0  0
  6 12  1  0  0  0
  6  7  1  0  0  0
  6 25  1  0  0  0
  7 22  1  0  0  0
  8  9  1  0  0  0
  8 25  1  0  0  0
  8 26  2  0  0  0
  9 27  1  0  0  0
  9 30  1  0  0  0
 10 27  1  0  0  0
 11 12  2  0  0  0
 12 13  1  0  0  0
 13 14  1  0  0  0
 14 15  1  0  0  0
 17 18  2  0  0  0
 17 21  1  0  0  0
 18 19  1  0  0  0
 18 20  1  0  0  0
 22 24  1  0  0  0
 22 23  1  0  0  0
 24 25  1  0  0  0
 27 28  1  0  0  0
 27 29  1  0  0  0
 30 31  1  0  0  0
 31 32  2  0  0  0
 31 33  1  0  0  0
M  ISO  1  31 101
M  END
> <s_m_entry_id>
18

> <s_m_entry_name>
6zhc.1_mol2

> <s_m_subgroup_title>
6zhc - minimized_split_by_molecule

> <s_m_subgroupid>
6zhc - minimized_split_by_molecule

> <b_m_subgroup_collapsed>
0

$$$$
