
  -OEChem-04072317143D

 59 65  0     1  0  0  0  0  0999 V2000
   70.1410   43.6804   51.9617 C   0  0  0  0  0  0  0  0  0  0  0  0
   69.4531   44.8697   51.7038 C   0  0  0  0  0  0  0  0  0  0  0  0
   69.1044   36.4787   56.2618 C   0  0  0  0  0  0  0  0  0  0  0  0
   69.1969   34.0651   56.2095 C   0  0  0  0  0  0  0  0  0  0  0  0
   70.4012   42.7551   50.9302 C   0  0  0  0  0  0  0  0  0  0  0  0
   68.1443   36.4201   57.2719 C   0  0  0  0  0  0  0  0  0  0  0  0
   68.2368   34.0064   57.2196 C   0  0  0  0  0  0  0  0  0  0  0  0
   69.6307   35.3012   55.7305 C   0  0  0  0  0  0  0  0  0  0  0  0
   69.0457   45.0913   50.4043 C   0  0  0  0  0  0  0  0  0  0  0  0
   69.3018   44.1808   49.3896 C   0  0  0  0  0  0  0  0  0  0  0  0
   70.2825   36.0263   53.4016 C   0  0  0  0  0  0  0  0  0  0  0  0
   68.9435   36.0792   52.8640 C   0  0  0  0  0  0  0  0  0  0  0  0
   69.9786   43.0009   49.6207 C   0  0  0  0  0  0  0  0  0  0  0  0
   67.7105   35.1839   57.7509 C   0  0  0  0  0  0  0  0  0  0  0  0
   68.8375   36.8644   51.7379 C   0  0  0  0  0  0  0  0  0  0  0  0
   71.1258   36.7483   52.5795 C   0  0  0  0  0  0  0  0  0  0  0  0
   73.3461   36.0322   53.3944 C   0  0  0  0  0  0  0  0  0  0  0  0
   73.3505   37.8069   52.1424 C   0  0  0  0  0  0  0  0  0  0  0  0
   70.6543   35.3634   54.6541 C   0  0  0  0  0  0  0  0  0  0  0  0
   68.3174   46.2210   49.8274 C   0  0  0  0  0  0  0  0  0  0  0  0
   68.7412   44.7154   48.1494 C   0  0  0  0  0  0  0  0  0  0  0  0
   66.1700   49.2923   46.8676 C   0  0  0  0  0  0  0  0  0  0  0  0
   68.2898   48.0986   47.4781 C   0  0  0  0  0  0  0  0  0  0  0  0
   73.9358   33.3296   52.1535 C   0  0  0  0  0  0  0  0  0  0  0  0
   69.9042   39.8418   47.8363 C   0  0  0  0  0  0  0  0  0  0  0  0
   65.4113   47.9920   46.9841 C   0  0  0  0  0  0  0  0  0  0  0  0
   66.0685   47.0507   47.9790 C   0  0  0  0  0  0  0  0  0  0  0  0
   72.9265   34.7386   53.9999 C   0  0  2  0  0  0  0  0  0  0  0  0
   67.5076   46.7988   47.5567 C   0  0  2  0  0  0  0  0  0  0  0  0
   67.7719   35.3677   53.4438 C   0  0  0  0  0  0  0  0  0  0  0  0
   67.6476   37.1471   50.9049 C   0  0  0  0  0  0  0  0  0  0  0  0
   72.9852   38.8436   51.1534 C   0  0  0  0  0  0  0  0  0  0  0  0
   72.6898   33.6459   52.9602 C   0  0  0  0  0  0  0  0  0  0  0  0
   70.3148   40.7329   48.9890 C   0  0  0  0  0  0  0  0  0  0  0  0
   74.3006   35.4020   47.2986 C   0  0  0  0  0  0  0  0  0  0  0  0
   73.1555   35.9282   46.4305 C   0  0  0  0  0  0  0  0  0  0  0  0
   73.8850   34.2535   48.2230 C   0  0  0  0  0  0  0  0  0  0  0  0
   71.9927   36.4289   47.2914 C   0  0  0  0  0  0  0  0  0  0  0  0
   75.0493   33.6752   49.0340 C   0  0  0  0  0  0  0  0  0  0  0  0
   70.8589   36.9844   46.4243 C   0  0  0  0  0  0  0  0  0  0  0  0
   74.6205   32.5015   49.9105 C   0  0  0  0  0  0  0  0  0  0  0  0
   69.6585   37.4376   47.2488 C   0  0  0  0  0  0  0  0  0  0  0  0
   74.5829   36.4833   53.3274 N   0  0  0  0  0  0  0  0  0  0  0  0
   74.5851   37.6014   52.5359 N   0  0  0  0  0  0  0  0  0  0  0  0
   71.7969   34.8385   54.9100 N   0  0  0  0  0  0  0  0  0  0  0  0
   72.5047   36.8749   52.6958 N   0  0  0  0  0  0  0  0  0  0  0  0
   67.5365   49.2146   47.1166 N   0  0  0  0  0  0  0  0  0  0  0  0
   68.1767   45.9276   48.4877 N   0  0  0  0  0  0  0  0  0  0  0  0
   73.6237   32.8705   50.8778 N   0  0  0  0  0  0  0  0  0  0  0  0
   69.9900   38.4935   48.1650 N   0  0  0  0  0  0  0  0  0  0  0  0
   67.9431   47.1895   50.4622 O   0  0  0  0  0  0  0  0  0  0  0  0
   68.7971   44.1518   47.0720 O   0  0  0  0  0  0  0  0  0  0  0  0
   65.6107   50.3331   46.5232 O   0  0  0  0  0  0  0  0  0  0  0  0
   69.5083   48.1535   47.6441 O   0  0  0  0  0  0  0  0  0  0  0  0
   75.0742   33.4701   52.5921 O   0  0  0  0  0  0  0  0  0  0  0  0
   69.5434   40.2853   46.7495 O   0  0  0  0  0  0  0  0  0  0  0  0
   70.2361   42.0934   48.6203 O   0  0  0  0  0  0  0  0  0  0  0  0
   70.3371   37.5520   51.3093 S   0  0  0  0  0  0  0  0  0  0  0  0
   66.5272   35.1116   58.9979 Cl  0  0  0  0  0  0  0  0  0  0  0  0
  1  2  1  0  0  0  0
  1  5  2  0  0  0  0
  2  9  2  0  0  0  0
  3  6  2  0  0  0  0
  3  8  1  0  0  0  0
  4  7  1  0  0  0  0
  4  8  2  0  0  0  0
  5 13  1  0  0  0  0
  6 14  1  0  0  0  0
  7 14  2  0  0  0  0
  8 19  1  0  0  0  0
  9 10  1  0  0  0  0
  9 20  1  0  0  0  0
 10 13  2  0  0  0  0
 10 21  1  0  0  0  0
 11 12  1  0  0  0  0
 11 16  2  0  0  0  0
 11 19  1  0  0  0  0
 12 15  2  0  0  0  0
 12 30  1  0  0  0  0
 13 57  1  0  0  0  0
 14 59  1  0  0  0  0
 15 31  1  0  0  0  0
 15 58  1  0  0  0  0
 16 46  1  0  0  0  0
 16 58  1  0  0  0  0
 17 28  1  0  0  0  0
 17 43  2  0  0  0  0
 17 46  1  0  0  0  0
 18 32  1  0  0  0  0
 18 44  2  0  0  0  0
 18 46  1  0  0  0  0
 19 45  2  0  0  0  0
 20 48  1  0  0  0  0
 20 51  2  0  0  0  0
 21 48  1  0  0  0  0
 21 52  2  0  0  0  0
 22 26  1  0  0  0  0
 22 47  1  0  0  0  0
 22 53  2  0  0  0  0
 23 29  1  0  0  0  0
 23 47  1  0  0  0  0
 23 54  2  0  0  0  0
 24 33  1  0  0  0  0
 24 49  1  0  0  0  0
 24 55  2  0  0  0  0
 25 34  1  0  0  0  0
 25 50  1  0  0  0  0
 25 56  2  0  0  0  0
 26 27  1  0  0  0  0
 27 29  1  0  0  0  0
 28 33  1  0  0  0  0
 28 45  1  0  0  0  0
 29 48  1  0  0  0  0
 34 57  1  0  0  0  0
 35 36  1  0  0  0  0
 35 37  1  0  0  0  0
 36 38  1  0  0  0  0
 37 39  1  0  0  0  0
 38 40  1  0  0  0  0
 39 41  1  0  0  0  0
 40 42  1  0  0  0  0
 41 49  1  0  0  0  0
 42 50  1  0  0  0  0
 43 44  1  0  0  0  0
M  ISO  4  13 101  24 100  49 101  57 100
M  END
> <Batch ID>
0000

> <Smiles>
Cc1sc2c(c1C)C(c1ccc(Cl)cc1)=N[C@@H](C[100C](=O)[101NH]CCCCCCCCNC(=O)C[100O][101c]1cccc3c1C(=O)N([C@H]1CCC(=O)NC1=O)C3=O)c1nnc(C)n1-2

> <Shape>
0.404

> <Color>
0.202

> <Negative vol penalty>
0.000

$$$$
